version 2
run Default-0-20210421-12:13:58-1664
attr configname Default
attr datetime 20210421-12:13:58
attr experiment Default
attr inifile omnetpp.ini
attr iterationvars ""
attr iterationvarsf ""
attr measurement ""
attr network Sim2Scenario
attr processid 1664
attr repetition 0
attr replication #0
attr resultdir results
attr runnumber 0
attr seedset 0
param *.playgroundSizeX 1000m
param *.playgroundSizeY 1000m
param *.playgroundSizeZ 50m
param *.annotations.draw true
param *.manager.moduleType "\"exploited=org.car2x.veins.nodes.Car *=org.car2x.veins.nodes.Car\""
param *.manager.moduleName "\"exploited=exploited *=uninfected\""
param *.manager.updateInterval 1s
param *.manager.host "\"localhost\""
param *.manager.port 9999
param *.manager.autoShutdown true
param *.manager.launchConfig "xmldoc(\"sim2.launchd.xml\")"
param *.connectionManager.sendDirect true
param *.connectionManager.maxInterfDist 300m
param *.connectionManager.drawMaxIntfDist false
param *.**.nic.mac1609_4.useServiceChannel false
param *.**.nic.mac1609_4.txPower 20mW
param *.**.nic.mac1609_4.bitrate 6Mbps
param *.**.nic.phy80211p.minPowerLevel -110dBm
param *.**.nic.phy80211p.useNoiseFloor true
param *.**.nic.phy80211p.noiseFloor -98dBm
param *.**.nic.phy80211p.decider "xmldoc(\"config.xml\")"
param *.**.nic.phy80211p.analogueModels "xmldoc(\"config.xml\")"
param *.**.nic.phy80211p.usePropagationDelay true
param *.**.nic.phy80211p.antenna "xmldoc(\"antenna.xml\", \"/root/Antenna[@id='monopole']\")"
param *.uninfected[*].nic.phy80211p.antennaOffsetY "0 m"
param *.uninfected[*].nic.phy80211p.antennaOffsetZ "1.895 m"
param *.exploited[*].nic.phy80211p.antennaOffsetY "0 m"
param *.exploited[*].nic.phy80211p.antennaOffsetZ "1.895 m"
param *.uninfected[*].applType "\"UninfectedDemo11p\""
param *.uninfected[*].appl.headerLength "80 bit"
param *.uninfected[*].appl.sendBeacons false
param *.uninfected[*].appl.dataOnSch false
param *.uninfected[*].appl.beaconInterval 1s
param *.exploited[*].applType "\"ExploitedDemo11p\""
param *.exploited[*].appl.headerLength "80 bit"
param *.exploited[*].appl.sendBeacons false
param *.exploited[*].appl.dataOnSch false
param *.exploited[*].appl.beaconInterval 1s
param *.uninfected[*].veinsmobility.x 0
param *.uninfected[*].veinsmobility.y 0
param *.uninfected[*].veinsmobility.z 0
param *.uninfected[*].veinsmobility.setHostSpeed false
param *.uninfected[*0].veinsmobility.accidentCount 1
param *.uninfected[*0].veinsmobility.accidentStart 73s
param *.uninfected[*0].veinsmobility.accidentDuration 50s
param *.exploited[*].veinsmobility.x 0
param *.exploited[*].veinsmobility.y 0
param *.exploited[*].veinsmobility.z 0
param *.exploited[*].veinsmobility.setHostSpeed false
param *.exploited[*0].veinsmobility.accidentCount 1
param *.exploited[*0].veinsmobility.accidentStart 73s
param *.exploited[*0].veinsmobility.accidentDuration 50s

vector 0 Sim2Scenario.uninfected[0].veinsmobility posx ETV
vector 1 Sim2Scenario.uninfected[0].veinsmobility posy ETV
vector 2 Sim2Scenario.uninfected[1].veinsmobility posx ETV
vector 3 Sim2Scenario.uninfected[1].veinsmobility posy ETV
vector 4 Sim2Scenario.uninfected[0].veinsmobility speed ETV
vector 5 Sim2Scenario.uninfected[2].veinsmobility posx ETV
vector 6 Sim2Scenario.uninfected[2].veinsmobility posy ETV
vector 7 Sim2Scenario.uninfected[0].veinsmobility acceleration ETV
vector 8 Sim2Scenario.uninfected[0].veinsmobility co2emission ETV
vector 9 Sim2Scenario.uninfected[1].veinsmobility speed ETV
vector 10 Sim2Scenario.uninfected[3].veinsmobility posx ETV
vector 11 Sim2Scenario.uninfected[3].veinsmobility posy ETV
vector 12 Sim2Scenario.uninfected[1].veinsmobility acceleration ETV
vector 13 Sim2Scenario.uninfected[1].veinsmobility co2emission ETV
vector 14 Sim2Scenario.uninfected[2].veinsmobility speed ETV
vector 15 Sim2Scenario.uninfected[4].veinsmobility posx ETV
vector 16 Sim2Scenario.uninfected[4].veinsmobility posy ETV
vector 17 Sim2Scenario.uninfected[2].veinsmobility acceleration ETV
vector 18 Sim2Scenario.uninfected[2].veinsmobility co2emission ETV
vector 19 Sim2Scenario.uninfected[3].veinsmobility speed ETV
vector 20 Sim2Scenario.uninfected[5].veinsmobility posx ETV
vector 21 Sim2Scenario.uninfected[5].veinsmobility posy ETV
vector 22 Sim2Scenario.uninfected[3].veinsmobility acceleration ETV
vector 23 Sim2Scenario.uninfected[3].veinsmobility co2emission ETV
vector 24 Sim2Scenario.uninfected[4].veinsmobility speed ETV
vector 25 Sim2Scenario.uninfected[6].veinsmobility posx ETV
vector 26 Sim2Scenario.uninfected[6].veinsmobility posy ETV
vector 27 Sim2Scenario.uninfected[4].veinsmobility acceleration ETV
vector 28 Sim2Scenario.uninfected[4].veinsmobility co2emission ETV
vector 29 Sim2Scenario.uninfected[5].veinsmobility speed ETV
vector 30 Sim2Scenario.uninfected[7].veinsmobility posx ETV
vector 31 Sim2Scenario.uninfected[7].veinsmobility posy ETV
vector 32 Sim2Scenario.uninfected[5].veinsmobility acceleration ETV
vector 33 Sim2Scenario.uninfected[5].veinsmobility co2emission ETV
vector 34 Sim2Scenario.uninfected[6].veinsmobility speed ETV
vector 35 Sim2Scenario.uninfected[8].veinsmobility posx ETV
vector 36 Sim2Scenario.uninfected[8].veinsmobility posy ETV
vector 37 Sim2Scenario.uninfected[6].veinsmobility acceleration ETV
vector 38 Sim2Scenario.uninfected[6].veinsmobility co2emission ETV
vector 39 Sim2Scenario.uninfected[7].veinsmobility speed ETV
vector 40 Sim2Scenario.uninfected[9].veinsmobility posx ETV
vector 41 Sim2Scenario.uninfected[9].veinsmobility posy ETV
vector 42 Sim2Scenario.uninfected[7].veinsmobility acceleration ETV
vector 43 Sim2Scenario.uninfected[7].veinsmobility co2emission ETV
vector 44 Sim2Scenario.uninfected[8].veinsmobility speed ETV
vector 45 Sim2Scenario.uninfected[10].veinsmobility posx ETV
vector 46 Sim2Scenario.uninfected[10].veinsmobility posy ETV
vector 47 Sim2Scenario.uninfected[8].veinsmobility acceleration ETV
vector 48 Sim2Scenario.uninfected[8].veinsmobility co2emission ETV
vector 49 Sim2Scenario.uninfected[9].veinsmobility speed ETV
vector 50 Sim2Scenario.uninfected[11].veinsmobility posx ETV
vector 51 Sim2Scenario.uninfected[11].veinsmobility posy ETV
vector 52 Sim2Scenario.uninfected[9].veinsmobility acceleration ETV
vector 53 Sim2Scenario.uninfected[9].veinsmobility co2emission ETV
vector 54 Sim2Scenario.uninfected[10].veinsmobility speed ETV
vector 55 Sim2Scenario.uninfected[12].veinsmobility posx ETV
vector 56 Sim2Scenario.uninfected[12].veinsmobility posy ETV
vector 57 Sim2Scenario.uninfected[10].veinsmobility acceleration ETV
vector 58 Sim2Scenario.uninfected[10].veinsmobility co2emission ETV
vector 59 Sim2Scenario.uninfected[11].veinsmobility speed ETV
vector 60 Sim2Scenario.uninfected[13].veinsmobility posx ETV
vector 61 Sim2Scenario.uninfected[13].veinsmobility posy ETV
vector 62 Sim2Scenario.uninfected[11].veinsmobility acceleration ETV
vector 63 Sim2Scenario.uninfected[11].veinsmobility co2emission ETV
vector 64 Sim2Scenario.uninfected[12].veinsmobility speed ETV
vector 65 Sim2Scenario.uninfected[14].veinsmobility posx ETV
vector 66 Sim2Scenario.uninfected[14].veinsmobility posy ETV
vector 67 Sim2Scenario.uninfected[12].veinsmobility acceleration ETV
vector 68 Sim2Scenario.uninfected[12].veinsmobility co2emission ETV
vector 69 Sim2Scenario.uninfected[13].veinsmobility speed ETV
vector 70 Sim2Scenario.uninfected[15].veinsmobility posx ETV
vector 71 Sim2Scenario.uninfected[15].veinsmobility posy ETV
vector 72 Sim2Scenario.uninfected[13].veinsmobility acceleration ETV
vector 73 Sim2Scenario.uninfected[13].veinsmobility co2emission ETV
vector 74 Sim2Scenario.uninfected[14].veinsmobility speed ETV
vector 75 Sim2Scenario.uninfected[16].veinsmobility posx ETV
vector 76 Sim2Scenario.uninfected[16].veinsmobility posy ETV
vector 77 Sim2Scenario.uninfected[14].veinsmobility acceleration ETV
vector 78 Sim2Scenario.uninfected[14].veinsmobility co2emission ETV
vector 79 Sim2Scenario.uninfected[15].veinsmobility speed ETV
vector 80 Sim2Scenario.exploited[17].veinsmobility posx ETV
vector 81 Sim2Scenario.exploited[17].veinsmobility posy ETV
vector 82 Sim2Scenario.uninfected[15].veinsmobility acceleration ETV
vector 83 Sim2Scenario.uninfected[15].veinsmobility co2emission ETV
vector 84 Sim2Scenario.uninfected[16].veinsmobility speed ETV
vector 85 Sim2Scenario.uninfected[18].veinsmobility posx ETV
vector 86 Sim2Scenario.uninfected[18].veinsmobility posy ETV
vector 87 Sim2Scenario.uninfected[16].veinsmobility acceleration ETV
vector 88 Sim2Scenario.uninfected[16].veinsmobility co2emission ETV
vector 89 Sim2Scenario.exploited[17].veinsmobility speed ETV
vector 90 Sim2Scenario.uninfected[19].veinsmobility posx ETV
vector 91 Sim2Scenario.uninfected[19].veinsmobility posy ETV
vector 92 Sim2Scenario.exploited[17].veinsmobility acceleration ETV
vector 93 Sim2Scenario.exploited[17].veinsmobility co2emission ETV
vector 94 Sim2Scenario.uninfected[18].veinsmobility speed ETV
vector 95 Sim2Scenario.uninfected[20].veinsmobility posx ETV
vector 96 Sim2Scenario.uninfected[20].veinsmobility posy ETV
vector 97 Sim2Scenario.uninfected[18].veinsmobility acceleration ETV
vector 98 Sim2Scenario.uninfected[18].veinsmobility co2emission ETV
vector 99 Sim2Scenario.uninfected[19].veinsmobility speed ETV
vector 100 Sim2Scenario.uninfected[21].veinsmobility posx ETV
vector 101 Sim2Scenario.uninfected[21].veinsmobility posy ETV
vector 102 Sim2Scenario.uninfected[19].veinsmobility acceleration ETV
vector 103 Sim2Scenario.uninfected[19].veinsmobility co2emission ETV
vector 104 Sim2Scenario.uninfected[20].veinsmobility speed ETV
vector 105 Sim2Scenario.uninfected[22].veinsmobility posx ETV
vector 106 Sim2Scenario.uninfected[22].veinsmobility posy ETV
vector 107 Sim2Scenario.uninfected[20].veinsmobility acceleration ETV
vector 108 Sim2Scenario.uninfected[20].veinsmobility co2emission ETV
vector 109 Sim2Scenario.uninfected[21].veinsmobility speed ETV
vector 110 Sim2Scenario.uninfected[23].veinsmobility posx ETV
vector 111 Sim2Scenario.uninfected[23].veinsmobility posy ETV
vector 112 Sim2Scenario.uninfected[21].veinsmobility acceleration ETV
vector 113 Sim2Scenario.uninfected[21].veinsmobility co2emission ETV
vector 114 Sim2Scenario.uninfected[22].veinsmobility speed ETV
vector 115 Sim2Scenario.uninfected[24].veinsmobility posx ETV
vector 116 Sim2Scenario.uninfected[24].veinsmobility posy ETV
vector 117 Sim2Scenario.uninfected[22].veinsmobility acceleration ETV
vector 118 Sim2Scenario.uninfected[22].veinsmobility co2emission ETV
vector 119 Sim2Scenario.uninfected[23].veinsmobility speed ETV
vector 120 Sim2Scenario.uninfected[25].veinsmobility posx ETV
vector 121 Sim2Scenario.uninfected[25].veinsmobility posy ETV
vector 122 Sim2Scenario.uninfected[23].veinsmobility acceleration ETV
vector 123 Sim2Scenario.uninfected[23].veinsmobility co2emission ETV
vector 124 Sim2Scenario.uninfected[24].veinsmobility speed ETV
vector 125 Sim2Scenario.uninfected[26].veinsmobility posx ETV
vector 126 Sim2Scenario.uninfected[26].veinsmobility posy ETV
vector 127 Sim2Scenario.uninfected[24].veinsmobility acceleration ETV
vector 128 Sim2Scenario.uninfected[24].veinsmobility co2emission ETV
vector 129 Sim2Scenario.uninfected[25].veinsmobility speed ETV
vector 130 Sim2Scenario.uninfected[27].veinsmobility posx ETV
vector 131 Sim2Scenario.uninfected[27].veinsmobility posy ETV
vector 132 Sim2Scenario.uninfected[25].veinsmobility acceleration ETV
vector 133 Sim2Scenario.uninfected[25].veinsmobility co2emission ETV
vector 134 Sim2Scenario.uninfected[26].veinsmobility speed ETV
vector 135 Sim2Scenario.uninfected[28].veinsmobility posx ETV
vector 136 Sim2Scenario.uninfected[28].veinsmobility posy ETV
vector 137 Sim2Scenario.uninfected[26].veinsmobility acceleration ETV
vector 138 Sim2Scenario.uninfected[26].veinsmobility co2emission ETV
vector 139 Sim2Scenario.uninfected[27].veinsmobility speed ETV
vector 140 Sim2Scenario.uninfected[29].veinsmobility posx ETV
vector 141 Sim2Scenario.uninfected[29].veinsmobility posy ETV
vector 142 Sim2Scenario.uninfected[27].veinsmobility acceleration ETV
vector 143 Sim2Scenario.uninfected[27].veinsmobility co2emission ETV
vector 144 Sim2Scenario.uninfected[28].veinsmobility speed ETV
vector 145 Sim2Scenario.uninfected[30].veinsmobility posx ETV
vector 146 Sim2Scenario.uninfected[30].veinsmobility posy ETV
vector 147 Sim2Scenario.uninfected[28].veinsmobility acceleration ETV
vector 148 Sim2Scenario.uninfected[28].veinsmobility co2emission ETV
vector 149 Sim2Scenario.uninfected[29].veinsmobility speed ETV
vector 150 Sim2Scenario.uninfected[31].veinsmobility posx ETV
vector 151 Sim2Scenario.uninfected[31].veinsmobility posy ETV
vector 152 Sim2Scenario.uninfected[29].veinsmobility acceleration ETV
vector 153 Sim2Scenario.uninfected[29].veinsmobility co2emission ETV
vector 154 Sim2Scenario.uninfected[30].veinsmobility speed ETV
vector 155 Sim2Scenario.uninfected[32].veinsmobility posx ETV
vector 156 Sim2Scenario.uninfected[32].veinsmobility posy ETV
vector 157 Sim2Scenario.uninfected[30].veinsmobility acceleration ETV
vector 158 Sim2Scenario.uninfected[30].veinsmobility co2emission ETV
vector 159 Sim2Scenario.uninfected[31].veinsmobility speed ETV
vector 160 Sim2Scenario.uninfected[33].veinsmobility posx ETV
vector 161 Sim2Scenario.uninfected[33].veinsmobility posy ETV
vector 162 Sim2Scenario.uninfected[31].veinsmobility acceleration ETV
vector 163 Sim2Scenario.uninfected[31].veinsmobility co2emission ETV
vector 164 Sim2Scenario.uninfected[32].veinsmobility speed ETV
vector 165 Sim2Scenario.uninfected[34].veinsmobility posx ETV
vector 166 Sim2Scenario.uninfected[34].veinsmobility posy ETV
vector 167 Sim2Scenario.uninfected[32].veinsmobility acceleration ETV
vector 168 Sim2Scenario.uninfected[32].veinsmobility co2emission ETV
vector 169 Sim2Scenario.uninfected[33].veinsmobility speed ETV
vector 170 Sim2Scenario.uninfected[35].veinsmobility posx ETV
vector 171 Sim2Scenario.uninfected[35].veinsmobility posy ETV
vector 172 Sim2Scenario.uninfected[33].veinsmobility acceleration ETV
vector 173 Sim2Scenario.uninfected[33].veinsmobility co2emission ETV
vector 174 Sim2Scenario.uninfected[34].veinsmobility speed ETV
vector 175 Sim2Scenario.uninfected[36].veinsmobility posx ETV
vector 176 Sim2Scenario.uninfected[36].veinsmobility posy ETV
vector 177 Sim2Scenario.uninfected[34].veinsmobility acceleration ETV
vector 178 Sim2Scenario.uninfected[34].veinsmobility co2emission ETV
vector 179 Sim2Scenario.uninfected[35].veinsmobility speed ETV
vector 180 Sim2Scenario.uninfected[37].veinsmobility posx ETV
vector 181 Sim2Scenario.uninfected[37].veinsmobility posy ETV
vector 182 Sim2Scenario.uninfected[35].veinsmobility acceleration ETV
vector 183 Sim2Scenario.uninfected[35].veinsmobility co2emission ETV
vector 184 Sim2Scenario.uninfected[36].veinsmobility speed ETV
vector 185 Sim2Scenario.exploited[38].veinsmobility posx ETV
vector 186 Sim2Scenario.exploited[38].veinsmobility posy ETV
vector 187 Sim2Scenario.uninfected[36].veinsmobility acceleration ETV
vector 188 Sim2Scenario.uninfected[36].veinsmobility co2emission ETV
vector 189 Sim2Scenario.uninfected[37].veinsmobility speed ETV
123	27	26	4.3424196864163
123	28	27	5.1664336745192
123	29	28	6.7482901847414
123	30	29	7.2172164259374
123	31	30	7.8248594772988
123	32	31	2.7263996159557
123	33	32	1.8404058298701
123	34	33	2.1226303448055
123	35	34	1.7883051911535
123	36	35	2.2985564711867
123	37	36	1.7046288362581
123	38	37	2.2277436770704
123	39	38	2.1484184728046
123	40	39	1.8978022653804
122	27	26	2.0080248463456
122	28	27	1.8973841195507
122	29	28	2.0943918044725
122	30	29	1.8746404519398
122	31	30	1.7666099970415
122	32	31	0.2092885487923
122	33	32	-0.054180569397285
122	34	33	0.029569066087715
122	35	34	-0.068823804652784
122	36	35	0.081791379300411
122	37	36	-0.09373022872256
122	38	37	0.061715465998276
122	39	38	0.036709342610557
122	40	39	-0.037229535290971
119	26	25	4.0277950379694
119	27	26	6.0358198843151
119	28	27	7.9332040038658
119	29	28	10.027595808338
119	30	29	11.902236260278
119	31	30	13.66884625732
119	32	31	13.878134806112
119	33	32	13.823954236715
119	34	33	13.853523302802
119	35	34	13.78469949815
119	36	35	13.86649087745
119	37	36	13.772760648727
119	38	37	13.834476114726
119	39	38	13.871185457336
119	40	39	13.833955922045
111	25	24	823.4
111	26	25	823.4
111	27	26	823.4
111	28	27	823.4
111	29	28	823.4
111	30	29	823.4
111	31	30	823.4
111	32	31	823.4
111	33	32	823.4
111	34	33	823.4
111	35	34	823.4
111	36	35	823.4
111	37	36	823.4
111	38	37	823.4
111	39	38	823.4
111	40	39	823.4
110	25	24	611.61766712898
110	26	25	608.40184443927
110	27	26	603.28697662879
110	28	27	596.14748634045
110	29	28	587.09872194205
110	30	29	576.03480381814
110	31	30	563.13441331759
110	32	31	549.30460298153
110	33	32	535.47055606413
110	34	33	521.65201557554
110	35	34	507.82794321244
110	36	35	494.00950867297
110	37	36	480.17831491164
110	38	37	466.36972520999
110	39	38	452.54479423958
110	40	39	438.71025789349
vector 190 Sim2Scenario.uninfected[39].veinsmobility posx ETV
vector 191 Sim2Scenario.uninfected[39].veinsmobility posy ETV
vector 192 Sim2Scenario.uninfected[37].veinsmobility acceleration ETV
vector 193 Sim2Scenario.uninfected[37].veinsmobility co2emission ETV
vector 194 Sim2Scenario.exploited[38].veinsmobility speed ETV
vector 195 Sim2Scenario.uninfected[40].veinsmobility posx ETV
vector 196 Sim2Scenario.uninfected[40].veinsmobility posy ETV
vector 197 Sim2Scenario.exploited[38].veinsmobility acceleration ETV
vector 198 Sim2Scenario.exploited[38].veinsmobility co2emission ETV
vector 199 Sim2Scenario.uninfected[39].veinsmobility speed ETV
vector 200 Sim2Scenario.uninfected[39].veinsmobility acceleration ETV
vector 201 Sim2Scenario.uninfected[39].veinsmobility co2emission ETV
vector 202 Sim2Scenario.uninfected[40].veinsmobility speed ETV
vector 203 Sim2Scenario.exploited[41].veinsmobility posx ETV
vector 204 Sim2Scenario.exploited[41].veinsmobility posy ETV
vector 205 Sim2Scenario.uninfected[42].veinsmobility posx ETV
vector 206 Sim2Scenario.uninfected[42].veinsmobility posy ETV
vector 207 Sim2Scenario.uninfected[40].veinsmobility acceleration ETV
vector 208 Sim2Scenario.uninfected[40].veinsmobility co2emission ETV
vector 209 Sim2Scenario.exploited[43].veinsmobility posx ETV
vector 210 Sim2Scenario.exploited[43].veinsmobility posy ETV
vector 211 Sim2Scenario.exploited[41].veinsmobility speed ETV
vector 212 Sim2Scenario.uninfected[42].veinsmobility speed ETV
vector 213 Sim2Scenario.uninfected[44].veinsmobility posx ETV
vector 214 Sim2Scenario.uninfected[44].veinsmobility posy ETV
vector 215 Sim2Scenario.exploited[41].veinsmobility acceleration ETV
vector 216 Sim2Scenario.exploited[41].veinsmobility co2emission ETV
vector 217 Sim2Scenario.uninfected[42].veinsmobility acceleration ETV
vector 218 Sim2Scenario.uninfected[42].veinsmobility co2emission ETV
vector 219 Sim2Scenario.exploited[43].veinsmobility speed ETV
vector 220 Sim2Scenario.uninfected[45].veinsmobility posx ETV
vector 221 Sim2Scenario.uninfected[45].veinsmobility posy ETV
vector 222 Sim2Scenario.exploited[43].veinsmobility acceleration ETV
vector 223 Sim2Scenario.exploited[43].veinsmobility co2emission ETV
vector 224 Sim2Scenario.uninfected[44].veinsmobility speed ETV
vector 225 Sim2Scenario.uninfected[46].veinsmobility posx ETV
vector 226 Sim2Scenario.uninfected[46].veinsmobility posy ETV
vector 227 Sim2Scenario.uninfected[44].veinsmobility acceleration ETV
vector 228 Sim2Scenario.uninfected[44].veinsmobility co2emission ETV
vector 229 Sim2Scenario.uninfected[45].veinsmobility speed ETV
vector 230 Sim2Scenario.uninfected[47].veinsmobility posx ETV
vector 231 Sim2Scenario.uninfected[47].veinsmobility posy ETV
vector 232 Sim2Scenario.uninfected[45].veinsmobility acceleration ETV
vector 233 Sim2Scenario.uninfected[45].veinsmobility co2emission ETV
vector 234 Sim2Scenario.uninfected[46].veinsmobility speed ETV
vector 235 Sim2Scenario.uninfected[48].veinsmobility posx ETV
vector 236 Sim2Scenario.uninfected[48].veinsmobility posy ETV
vector 237 Sim2Scenario.uninfected[46].veinsmobility acceleration ETV
vector 238 Sim2Scenario.uninfected[46].veinsmobility co2emission ETV
vector 239 Sim2Scenario.uninfected[47].veinsmobility speed ETV
vector 240 Sim2Scenario.uninfected[49].veinsmobility posx ETV
vector 241 Sim2Scenario.uninfected[49].veinsmobility posy ETV
vector 242 Sim2Scenario.uninfected[47].veinsmobility acceleration ETV
vector 243 Sim2Scenario.uninfected[47].veinsmobility co2emission ETV
vector 244 Sim2Scenario.uninfected[48].veinsmobility speed ETV
vector 245 Sim2Scenario.uninfected[48].veinsmobility acceleration ETV
vector 246 Sim2Scenario.uninfected[48].veinsmobility co2emission ETV
vector 247 Sim2Scenario.uninfected[49].veinsmobility speed ETV
23	7	6	4.2946323108477
23	8	7	5.11749157018
23	9	8	6.9283691925252
23	10	9	8.0209828473551
23	11	10	7.3321258356079
23	12	11	2.2236044563181
23	13	12	1.7028164103912
23	14	13	2.2959736335064
23	15	14	1.8249777674441
23	16	15	2.2967249607751
23	17	16	1.7543548741923
23	18	17	1.9603287430802
23	19	18	2.0382277209862
23	20	19	2.2063019424125
23	21	20	2.1527687457459
23	22	21	2.0008563466513
23	23	22	1.6323518771735
23	24	23	2.1096800290575
23	25	24	2.0796027425277
23	26	25	1.9812550357746
23	27	26	2.2725269304293
23	28	27	1.8868276083708
23	29	28	1.9677574756384
23	30	29	1.8484391583439
23	31	30	2.3343164284466
23	32	31	1.7482994031826
23	33	32	0.973
23	34	33	0.973
23	35	34	0.973
23	36	35	0.973
23	37	36	1.6597434121751
23	38	37	5.2904055825696
23	39	38	5.5826846535987
23	40	39	6.3981623443768
23	41	40	7.9340088262931
23	42	41	5.9319952666701
23	43	42	1.9187490442906
23	44	43	2.2581156030591
23	45	44	1.8001795964021
23	46	45	2.0992860568444
23	47	46	2.057669244914
23	48	47	2.2242085937102
23	49	48	2.0141237519389
23	50	49	1.931411551974
23	51	50	1.9778822407798
23	52	51	2.1685727577002
22	7	6	1.9424539956544
22	8	7	1.8580689705699
22	9	8	2.144160495922
22	10	9	2.089649444879
22	11	10	1.5956912460645
22	12	11	0.05914055863861
22	13	12	-0.094411180203315
22	14	13	0.081262434874661
22	15	14	-0.058225373916795
22	16	15	0.08067412388511
22	17	16	-0.079487094047945
22	18	17	-0.017070125031751
22	19	18	0.0061861746502121
22	20	19	0.054864439407828
22	21	20	0.037577236816288
22	22	21	-0.0075958896148958
22	23	22	-0.11525616044411
22	24	23	0.0277686859807
22	25	24	0.018142678570001
22	26	25	-0.011085084402001
22	27	26	0.073872585417703
22	28	27	-0.040404997947627
22	29	28	-0.015665492091793
22	30	29	-0.050166805482004
22	31	30	0.092853501169012
22	32	31	-0.080654946423602
22	33	32	-0.27908423852234
22	34	33	-3.3188026039673
22	35	34	-3.0607588449122
22	36	35	-2.6639138147991
22	37	36	0.27380115026151
22	38	37	2.2626646912354
22	39	38	1.865516085461
22	40	39	1.8129735422344
22	41	40	1.9775976553769
22	42	41	1.1743511833996
22	43	42	-0.029727904323954
22	44	43	0.069898521474098
22	45	44	-0.06551566695096
22	46	45	0.023690663317684
22	47	46	0.010855919988826
22	48	47	0.058784069500398
22	49	48	-0.0038656439958142
22	50	49	-0.027796071786433
22	51	50	-0.013484198974911
22	52	51	0.042258514256682
19	6	5	4.1837425248161
19	7	6	6.1261965204705
19	8	7	7.9842654910403
19	9	8	10.128425986962
19	10	9	12.218075431841
19	11	10	13.813766677906
19	12	11	13.872907236544
19	13	12	13.778496056341
19	14	13	13.859758491216
19	15	14	13.801533117299
19	16	15	13.882207241184
19	17	16	13.802720147136
19	18	17	13.785650022104
19	19	18	13.791836196755
19	20	19	13.846700636162
19	21	20	13.884277872979
19	22	21	13.876681983364
19	23	22	13.76142582292
19	24	23	13.7891945089
19	25	24	13.80733718747
19	26	25	13.796252103068
19	27	26	13.870124688486
19	28	27	13.829719690538
19	29	28	13.814054198447
19	30	29	13.763887392965
19	31	30	13.856740894134
19	32	31	13.77608594771
19	33	32	13.497001709188
19	34	33	10.17819910522
19	35	34	7.1174402603083
19	36	35	4.4535264455091
19	37	36	4.7273275957707
19	38	37	6.9899922870061
19	39	38	8.855508372467
19	40	39	10.668481914701
19	41	40	12.646079570078
19	42	41	13.820430753478
19	43	42	13.790702849154
19	44	43	13.860601370628
19	45	44	13.795085703677
19	46	45	13.818776366995
19	47	46	13.829632286984
19	48	47	13.888416356484
19	49	48	13.884550712488
19	50	49	13.856754640702
19	51	50	13.843270441727
19	52	51	13.885528955983
11	5	4	611.63399887184
11	6	5	608.44140993568
11	7	6	603.24065654773
11	8	7	596.11585985655
11	9	8	586.98487779614
11	10	9	575.69661619577
11	11	10	562.3987816814
11	12	11	548.58521488621
11	13	12	534.76483012689
11	14	13	520.94438337148
11	15	14	507.13113259258
11	16	15	493.2982212697
11	17	16	479.48624702987
11	18	17	465.67750045821
11	19	18	451.85606954553
11	20	19	438.0180331146
11	21	20	424.16721150104
11	22	21	410.31758312272
11	23	22	396.50776093453
11	24	23	382.68953467472
11	25	24	368.85741291295
11	26	25	355.040794886
11	27	26	341.20328537731
11	28	27	327.3794676029
11	29	28	313.5610849395
11	30	29	299.73700499785
11	31	30	285.90936821452
11	32	31	272.10613938692
11	33	32	258.31459610098
11	34	33	246.66287048926
11	35	34	238.21531569872
11	36	35	232.5962605133
11	37	36	228.62032894189
11	38	37	224.2872921269
11	39	38	223.4
11	40	39	223.4
11	41	40	223.4
11	42	41	223.4
11	43	42	223.4
11	44	43	223.4
11	45	44	223.4
11	46	45	223.4
11	47	46	223.4
11	48	47	223.4
11	49	48	223.4
11	50	49	223.4
11	51	50	223.4
11	52	51	223.4
10	5	4	226.6
10	6	5	226.6
10	7	6	226.6
10	8	7	226.6
10	9	8	226.6
10	10	9	226.6
10	11	10	226.6
10	12	11	226.6
10	13	12	226.6
10	14	13	226.6
10	15	14	226.6
10	16	15	226.6
10	17	16	226.6
10	18	17	226.6
10	19	18	226.6
10	20	19	226.6
10	21	20	226.6
10	22	21	226.6
10	23	22	226.6
10	24	23	226.6
10	25	24	226.6
10	26	25	226.6
10	27	26	226.6
10	28	27	226.6
10	29	28	226.6
10	30	29	226.6
10	31	30	226.6
10	32	31	226.6
10	33	32	226.6
10	34	33	226.6
10	35	34	226.6
10	36	35	226.6
10	37	36	226.08861842027
10	38	37	222.21215354484
10	39	38	214.35869856504
10	40	39	204.51530066188
10	41	40	192.74025452255
10	42	41	179.25500759093
10	43	42	165.43130788604
10	44	43	151.58898374143
10	45	44	137.7627793265
10	46	45	123.92075749291
10	47	46	110.0943026629
10	48	47	96.276243760447
10	49	48	82.453308972578
10	50	49	68.635011937006
10	51	50	54.787242340484
10	52	51	40.963665082662
vector 248 Sim2Scenario.uninfected[50].veinsmobility posx ETV
vector 249 Sim2Scenario.uninfected[50].veinsmobility posy ETV
vector 250 Sim2Scenario.uninfected[51].veinsmobility posx ETV
vector 251 Sim2Scenario.uninfected[51].veinsmobility posy ETV
vector 252 Sim2Scenario.uninfected[49].veinsmobility acceleration ETV
vector 253 Sim2Scenario.uninfected[49].veinsmobility co2emission ETV
vector 254 Sim2Scenario.exploited[52].veinsmobility posx ETV
vector 255 Sim2Scenario.exploited[52].veinsmobility posy ETV
vector 256 Sim2Scenario.uninfected[50].veinsmobility speed ETV
vector 257 Sim2Scenario.uninfected[51].veinsmobility speed ETV
vector 258 Sim2Scenario.uninfected[50].veinsmobility acceleration ETV
vector 259 Sim2Scenario.uninfected[50].veinsmobility co2emission ETV
vector 260 Sim2Scenario.uninfected[51].veinsmobility acceleration ETV
vector 261 Sim2Scenario.uninfected[51].veinsmobility co2emission ETV
vector 262 Sim2Scenario.exploited[52].veinsmobility speed ETV
vector 263 Sim2Scenario.uninfected[53].veinsmobility posx ETV
vector 264 Sim2Scenario.uninfected[53].veinsmobility posy ETV
vector 265 Sim2Scenario.exploited[52].veinsmobility acceleration ETV
vector 266 Sim2Scenario.exploited[52].veinsmobility co2emission ETV
vector 267 Sim2Scenario.exploited[54].veinsmobility posx ETV
vector 268 Sim2Scenario.exploited[54].veinsmobility posy ETV
vector 269 Sim2Scenario.uninfected[53].veinsmobility speed ETV
vector 270 Sim2Scenario.uninfected[55].veinsmobility posx ETV
vector 271 Sim2Scenario.uninfected[55].veinsmobility posy ETV
vector 272 Sim2Scenario.uninfected[53].veinsmobility acceleration ETV
vector 273 Sim2Scenario.uninfected[53].veinsmobility co2emission ETV
vector 274 Sim2Scenario.exploited[54].veinsmobility speed ETV
vector 275 Sim2Scenario.uninfected[56].veinsmobility posx ETV
vector 276 Sim2Scenario.uninfected[56].veinsmobility posy ETV
vector 277 Sim2Scenario.exploited[54].veinsmobility acceleration ETV
vector 278 Sim2Scenario.exploited[54].veinsmobility co2emission ETV
vector 279 Sim2Scenario.uninfected[55].veinsmobility speed ETV
vector 280 Sim2Scenario.uninfected[57].veinsmobility posx ETV
vector 281 Sim2Scenario.uninfected[57].veinsmobility posy ETV
vector 282 Sim2Scenario.uninfected[55].veinsmobility acceleration ETV
vector 283 Sim2Scenario.uninfected[55].veinsmobility co2emission ETV
vector 284 Sim2Scenario.uninfected[56].veinsmobility speed ETV
vector 285 Sim2Scenario.uninfected[58].veinsmobility posx ETV
vector 286 Sim2Scenario.uninfected[58].veinsmobility posy ETV
vector 287 Sim2Scenario.uninfected[59].veinsmobility posx ETV
vector 288 Sim2Scenario.uninfected[59].veinsmobility posy ETV
vector 289 Sim2Scenario.uninfected[56].veinsmobility acceleration ETV
vector 290 Sim2Scenario.uninfected[56].veinsmobility co2emission ETV
vector 291 Sim2Scenario.uninfected[57].veinsmobility speed ETV
vector 292 Sim2Scenario.uninfected[60].veinsmobility posx ETV
vector 293 Sim2Scenario.uninfected[60].veinsmobility posy ETV
vector 294 Sim2Scenario.uninfected[57].veinsmobility acceleration ETV
vector 295 Sim2Scenario.uninfected[57].veinsmobility co2emission ETV
vector 296 Sim2Scenario.uninfected[58].veinsmobility speed ETV
vector 297 Sim2Scenario.uninfected[59].veinsmobility speed ETV
53	13	12	4.3132457049137
53	14	13	5.3595102880519
53	15	14	6.3952191210152
53	16	15	7.6240947182539
53	17	16	8.3916367649199
53	18	17	1.8265547334969
53	19	18	2.1169420399481
53	20	19	2.002797423453
53	21	20	1.9643338897968
53	22	21	1.9469878821088
53	23	22	2.2373140120194
53	24	23	1.9272826405773
53	25	24	0.973
53	26	25	0.973
53	27	26	0.973
53	28	27	0.973
53	29	28	4.2584813692582
53	30	29	5.0527185204151
53	31	30	4.9605934597701
53	32	31	6.6522163786975
53	33	32	7.9215825725261
53	34	33	5.1434670677163
53	35	34	1.8087975259556
53	36	35	2.2333350725774
53	37	36	1.9604840401926
53	38	37	1.8407080431192
53	39	38	2.1161580372342
53	40	39	2.1339706371534
53	41	40	1.969458511368
53	42	41	1.2389841640288
53	43	42	0.973
53	44	43	0.973
53	45	44	0.973
53	46	45	1.6898166560417
53	47	46	4.1363510557564
53	48	47	1.7700259926511
53	49	48	5.8683154822294
53	50	49	7.2890737631003
53	51	50	8.1731671732326
53	52	51	5.368619109806
53	53	52	1.6716795280403
53	54	53	2.3276674900748
53	55	54	2.0271908738663
53	56	55	2.0176972565332
53	57	56	2.0571131652747
53	58	57	2.0328269189071
53	59	58	1.7334131545262
53	60	59	2.2281787163575
53	61	60	1.9348836223678
53	62	61	2.2707505887118
52	13	12	1.9843496885593
52	14	13	1.9739130757307
52	15	14	1.9593414146011
52	16	15	2.0010472978279
52	17	16	1.9024136733644
52	18	17	-0.058339483942836
52	19	18	0.027917107429822
52	20	19	-0.0060928162327034
52	21	20	-0.017121121832171
52	22	21	-0.021701262407005
52	23	22	0.063330784293358
52	24	23	-0.028607373670676
52	25	24	-1.8237022195707
52	26	25	-3.2708032359233
52	27	26	-2.8172923834296
52	28	27	-2.3677851712635
52	29	28	2.0963443885594
52	30	29	1.9328171070246
52	31	30	1.5213419577119
52	32	31	1.8512527756183
52	33	32	1.9284209102229
52	34	33	0.93675785956905
52	35	34	-0.062195128153544
52	36	35	0.063534186929465
52	37	36	-0.01780839199666
52	38	37	-0.052399966875091
52	39	38	0.029694739785045
52	40	39	0.033938863063232
52	41	40	-0.015002059084363
52	42	41	-0.23141020402777
52	43	42	-3.355442694288
52	44	43	-3.0031396723739
52	45	44	-2.7163243566269
52	46	45	0.29273899239562
52	47	46	1.713047739261
52	48	47	0.19140611034585
52	49	48	2.0318378316355
52	50	49	2.1179010292981
52	51	50	2.014656437349
52	52	51	1.000646990703
52	53	52	-0.10339668296743
52	54	53	0.091023166442756
52	55	54	0.0009876271150997
52	56	55	-0.001801422021817
52	57	56	0.0097042878926725
52	58	57	0.0023620270006361
52	59	58	-0.085195851791649
52	60	59	0.06165006732801
52	61	60	-0.025553915293422
52	62	61	0.072729882951826
49	12	11	4.0612817129509
49	13	12	6.0456314015102
49	14	13	8.0195444772409
49	15	14	9.9788858918419
49	16	15	11.97993318967
49	17	16	13.882346863034
49	18	17	13.824007379091
49	19	18	13.851924486521
49	20	19	13.845831670288
49	21	20	13.828710548456
49	22	21	13.807009286049
49	23	22	13.870340070343
49	24	23	13.841732696672
49	25	24	12.018030477101
49	26	25	8.747227241178
49	27	26	5.9299348577484
49	28	27	3.5621496864848
49	29	28	5.6584940750443
49	30	29	7.5913111820689
49	31	30	9.1126531397807
49	32	31	10.963905915399
49	33	32	12.892326825622
49	34	33	13.829084685191
49	35	34	13.766889557038
49	36	35	13.830423743967
49	37	36	13.81261535197
49	38	37	13.760215385095
49	39	38	13.78991012488
49	40	39	13.823848987943
49	41	40	13.808846928859
49	42	41	13.577436724831
49	43	42	10.221994030543
49	44	43	7.2188543581695
49	45	44	4.5025300015425
49	46	45	4.7952689939382
49	47	46	6.5083167331992
49	48	47	6.699722843545
49	49	48	8.7315606751805
49	50	49	10.849461704479
49	51	50	12.864118141828
49	52	51	13.864765132531
49	53	52	13.761368449563
49	54	53	13.852391616006
49	55	54	13.853379243121
49	56	55	13.851577821099
49	57	56	13.861282108992
49	58	57	13.863644135993
49	59	58	13.778448284201
49	60	59	13.840098351529
49	61	60	13.814544436235
49	62	61	13.887274319187
41	11	10	438.35435812088
41	12	11	441.46806322743
41	13	12	446.6671062355
41	14	13	453.80900201854
41	15	14	462.94051572673
41	16	15	474.0461191045
41	17	16	487.06497068098
41	18	17	500.88594324588
41	19	18	514.72954000147
41	20	19	528.56217668347
41	21	20	542.38909498321
41	22	21	556.22711562584
41	23	22	570.05718806012
41	24	23	583.88550106174
41	25	24	597.11998232359
41	26	25	607.34023625598
41	27	26	614.53415885835
41	28	27	619.08729801749
41	29	28	623.27899126564
41	30	29	626.35568849956
41	31	30	626.6
41	32	31	626.6
41	33	32	626.6
41	34	33	626.6
41	35	34	626.6
41	36	35	626.6
41	37	36	626.6
41	38	37	626.6
41	39	38	626.6
41	40	39	626.6
41	41	40	626.6
41	42	41	626.6
41	43	42	626.6
41	44	43	626.6
41	45	44	626.6
41	46	45	626.6
41	47	46	627.55340425345
41	48	47	633.29645017522
41	49	48	641.17673006366
41	50	49	651.10346841877
41	51	50	663.07720165682
41	52	51	676.70570051152
41	53	52	690.51806225086
41	54	53	704.35134836187
41	55	54	718.18329646042
41	56	55	732.02192341535
41	57	56	745.85750720422
41	58	57	759.69235604914
41	59	58	773.5208770415
41	60	59	787.35858606289
41	61	60	801.18515479379
41	62	61	815.01378516943
40	11	10	423.4
40	12	11	423.4
40	13	12	423.4
40	14	13	423.4
40	15	14	423.4
40	16	15	423.4
40	17	16	423.4
40	18	17	423.4
40	19	18	423.4
40	20	19	423.4
40	21	20	423.4
40	22	21	423.4
40	23	22	423.4
40	24	23	423.4
40	25	24	423.4
40	26	25	423.4
40	27	26	423.4
40	28	27	423.58389971678
40	29	28	424.92739475938
40	30	29	430.4898194969
40	31	30	438.89412902163
40	32	31	449.06335787026
40	33	32	461.12420511003
40	34	33	474.78832680365
40	35	34	488.6285789454
40	36	35	502.45612033102
40	37	36	516.26454240039
40	38	37	530.06761862491
40	39	38	543.9063891424
40	40	39	557.73155628931
40	41	40	571.57041121493
40	42	41	585.37354879607
40	43	42	597.11878408897
40	44	43	605.64170714708
40	45	44	611.36028168656
40	46	45	615.4612045199
40	47	46	621.25567375575
40	48	47	623.4
40	49	48	623.4
40	50	49	623.4
40	51	50	623.4
40	52	51	623.4
40	53	52	623.4
40	54	53	623.4
40	55	54	623.4
40	56	55	623.4
40	57	56	623.4
40	58	57	623.4
40	59	58	623.4
40	60	59	623.4
40	61	60	623.4
40	62	61	623.4
vector 298 Sim2Scenario.uninfected[61].veinsmobility posx ETV
vector 299 Sim2Scenario.uninfected[61].veinsmobility posy ETV
vector 300 Sim2Scenario.uninfected[58].veinsmobility acceleration ETV
vector 301 Sim2Scenario.uninfected[58].veinsmobility co2emission ETV
vector 302 Sim2Scenario.uninfected[59].veinsmobility acceleration ETV
vector 303 Sim2Scenario.uninfected[59].veinsmobility co2emission ETV
vector 304 Sim2Scenario.uninfected[60].veinsmobility speed ETV
73	17	16	3.9862190109624
73	18	17	4.9983252347758
73	19	18	6.3171895314156
73	20	19	7.0326256339594
73	21	20	8.4289382751256
73	22	21	3.2627049331404
73	23	22	1.9418511863936
73	24	23	1.9072787060294
73	25	24	2.3353492926068
73	26	25	1.633405991127
73	27	26	2.2914694782079
73	28	27	2.0675546462162
73	29	28	2.0997234044207
73	30	29	1.9087238895254
73	31	30	1.7419394851485
73	32	31	2.2575902590471
73	33	32	2.1987103114289
73	34	33	1.8455387590928
73	35	34	1.9116511937806
73	36	35	2.0661711171583
73	37	36	1.9762553859735
73	38	37	2.2664192680205
73	39	38	2.0760246419952
73	40	39	1.9282045758773
73	41	40	1.9840092974674
73	42	41	1.8802697866484
73	43	42	0.973
73	44	43	0.973
73	45	44	0.973
73	46	45	1.9387934258345
73	47	46	0.973
73	48	47	1.9671770227277
73	49	48	4.674508800131
73	50	49	5.8472783236327
73	51	50	6.9813331443392
73	52	51	7.7948040791125
73	53	52	5.9247022936533
73	54	53	2.0133306867072
73	55	54	2.126720486189
73	56	55	2.2488072531097
73	57	56	1.8956685523181
73	58	57	2.0378704598295
73	59	58	2.0221653987266
73	60	59	1.8588411417054
73	61	60	2.1009413572716
73	62	61	2.1481329312026
73	63	62	2.0460901618082
72	17	16	1.8861530219414
72	18	17	1.9034504601057
72	19	18	2.0141765621072
72	20	19	1.8876921280567
72	21	20	1.9838341676816
72	22	21	0.37140646446113
72	23	22	-0.023715842799284
72	24	23	-0.033166815272999
72	25	24	0.092209102183116
72	26	25	-0.11506988748908
72	27	26	0.080348232379183
72	28	27	0.012851258176379
72	29	28	0.021784840209875
72	30	29	-0.034346770907286
72	31	30	-0.08231783590978
72	32	31	0.070601809606886
72	33	32	0.05119660240598
72	34	33	-0.052922565133777
72	35	34	-0.032191811844241
72	36	35	0.013827012372204
72	37	36	-0.01280027442146
72	38	37	0.071861558789386
72	39	38	0.0144695038395
72	40	39	-0.028873429882806
72	41	40	-0.01181897688657
72	42	41	-0.041760095334611
72	43	42	-1.5382978970067
72	44	43	-2.9394193188088
72	45	44	-1.1533703262578
72	46	45	0.18437205719414
72	47	46	-4.4378103577699
72	48	47	0.58166485033575
72	49	48	2.0425345714809
72	50	49	2.0562678857078
72	51	50	2.0444231079984
72	52	51	1.942248833843
72	53	52	1.1782057998562
72	54	53	-0.00056866304250569
72	55	54	0.032539288478439
72	56	55	0.066887039523571
72	57	56	-0.037739390789065
72	58	57	0.0047804870223622
72	59	58	6.7850709893236e-005
72	60	59	-0.047638880691958
72	61	60	0.024440853113775
72	62	61	0.037380960928276
72	63	62	0.0066019972693159
69	16	15	3.8004325452788
69	17	16	5.6865855672202
69	18	17	7.5900360273259
69	19	18	9.6042125894331
69	20	19	11.49190471749
69	21	20	13.475738885171
69	22	21	13.847145349632
69	23	22	13.823429506833
69	24	23	13.79026269156
69	25	24	13.882471793743
69	26	25	13.767401906254
69	27	26	13.847750138633
69	28	27	13.86060139681
69	29	28	13.88238623702
69	30	29	13.848039466112
69	31	30	13.765721630203
69	32	31	13.836323439809
69	33	32	13.887520042215
69	34	33	13.834597477082
69	35	34	13.802405665237
69	36	35	13.81623267761
69	37	36	13.803432403188
69	38	37	13.875293961978
69	39	38	13.889763465817
69	40	39	13.860890035934
69	41	40	13.849071059048
69	42	41	13.807310963713
69	43	42	12.269013066706
69	44	43	9.3295937478976
69	45	44	8.1762234216398
69	46	45	8.3605954788339
69	47	46	3.922785121064
69	48	47	4.5044499713997
69	49	48	6.5469845428807
69	50	49	8.6032524285885
69	51	50	10.647675536587
69	52	51	12.58992437043
69	53	52	13.768130170286
69	54	53	13.767561507244
69	55	54	13.800100795722
69	56	55	13.866987835246
69	57	56	13.829248444457
69	58	57	13.834028931479
69	59	58	13.834096782189
69	60	59	13.786457901497
69	61	60	13.810898754611
69	62	61	13.848279715539
69	63	62	13.854881712808
61	15	14	411.64691181547
61	16	15	408.67835709193
61	17	16	403.89903919423
61	18	17	397.18910932311
61	19	18	388.42880889462
61	20	19	377.7516206551
61	21	20	365.12703238269
61	22	21	351.28976637755
61	23	22	337.47455390651
61	24	23	323.65636476375
61	25	24	309.82604227187
61	26	25	296.01861331262
61	27	26	282.17419362011
61	28	27	268.34030020849
61	29	28	254.5114584132
61	30	29	240.68386034753
61	31	30	226.87481222545
61	32	31	213.05827233228
61	33	32	199.22379930474
61	34	33	185.39161620027
61	35	34	171.5688854074
61	36	35	157.73378529951
61	37	36	143.91973490304
61	38	37	130.08440880522
61	39	38	116.25774472749
61	40	39	102.43676296177
61	41	40	88.585922482451
61	42	41	74.78440707725
61	43	42	61.39360389741
61	44	43	50.884627278283
61	45	44	42.324674790894
61	46	45	34.12905338253
61	47	46	28.208904528214
61	48	47	26.6
61	49	48	26.6
61	50	49	26.6
61	51	50	26.6
61	52	51	26.6
61	53	52	26.6
61	54	53	26.6
61	55	54	26.6
61	56	55	26.6
61	57	56	26.6
61	58	57	26.6
61	59	58	26.6
61	60	59	26.6
61	61	60	26.6
61	62	61	26.6
61	63	62	26.6
60	15	14	26.6
60	16	15	26.6
60	17	16	26.6
60	18	17	26.6
60	19	18	26.6
60	20	19	26.6
60	21	20	26.6
60	22	21	26.6
60	23	22	26.6
60	24	23	26.6
60	25	24	26.6
60	26	25	26.6
60	27	26	26.6
60	28	27	26.6
60	29	28	26.6
60	30	29	26.6
60	31	30	26.6
60	32	31	26.6
60	33	32	26.6
60	34	33	26.6
60	35	34	26.6
60	36	35	26.6
60	37	36	26.6
60	38	37	26.6
60	39	38	26.6
60	40	39	26.6
60	41	40	26.6
60	42	41	26.6
60	43	42	26.6
60	44	43	26.6
60	45	44	26.6
60	46	45	26.6
60	47	46	26.6
60	48	47	29.580617974387
60	49	48	35.257095748811
60	50	49	42.935298491422
60	51	50	52.647611590825
60	52	51	64.308063668434
60	53	52	77.771860798031
60	54	53	91.577546265292
60	55	54	105.39019509659
60	56	55	119.22074110175
60	57	56	133.06470966414
60	58	57	146.89321880536
60	59	58	160.71112722658
60	60	59	174.52882100839
60	61	60	188.35432673399
60	62	61	202.16683129067
60	63	62	215.99665397546
8	4	3	4.0322527122872
8	5	4	5.2975898300737
8	6	5	6.2393095735349
8	7	6	8.1168280262473
8	8	7	8.4055474696849
8	9	8	2.3038658754484
8	10	9	1.9713149755574
8	11	10	1.8163442131359
8	12	11	2.0431495384622
8	13	12	2.1380878866565
8	14	13	1.8140458596149
8	15	14	2.2730687791507
8	16	15	2.0682301560311
8	17	16	1.9544832606483
8	18	17	2.0365268825836
8	19	18	1.7894518426085
8	20	19	2.0525662521954
8	21	20	2.2622431446776
8	22	21	1.722826412014
8	23	22	2.4120671038472
8	24	23	1.8186792592635
8	25	24	1.9342413048899
8	26	25	2.0772325751314
8	27	26	2.2400710176204
8	28	27	1.6437339744064
8	29	28	2.3666079486696
8	30	29	1.783248008987
8	31	30	1.9699713238691
8	32	31	1.9963744594234
8	33	32	2.0385863317251
8	34	33	1.9847363127245
8	35	34	2.2910437946701
8	36	35	2.0797146195373
8	37	36	2.0370078316322
8	38	37	1.8082528189032
8	39	38	1.8828389500927
8	40	39	2.0405129077618
8	41	40	2.1422310330055
8	42	41	1.8961167680848
8	43	42	1.9903618513232
8	44	43	2.1893955822312
8	45	44	1.8607415087736
8	46	45	0.973
8	47	46	0.973
8	48	47	0.973
8	49	48	2.9267935002701
8	50	49	4.6758527481673
8	51	50	5.6726863069646
8	52	51	7.181692652817
8	53	52	7.7551784863008
8	54	53	5.077785141167
8	55	54	2.176210558764
8	56	55	2.0648719497936
8	57	56	1.9185310706116
8	58	57	2.2716320693814
8	59	58	1.7792105532432
8	60	59	2.2744758995358
8	61	60	1.9176724115891
8	62	61	2.0535428960424
8	63	62	1.7932113867136
7	4	3	1.9318974897382
7	5	4	2.0363803824014
7	6	5	1.9676209085644
7	7	6	2.1980462150532
7	8	7	1.9237625535764
7	9	8	0.083470799195652
7	10	9	-0.015602680516896
7	11	10	-0.060467649514321
7	12	11	0.0075541240349413
7	13	12	0.034957707063295
7	14	13	-0.060687651869376
7	15	14	0.074943820482586
7	16	15	0.013140040771104
7	17	16	-0.020331218841019
7	18	17	0.0041436190437523
7	19	18	-0.068192961576861
7	20	19	0.010737981244455
7	21	20	0.071314985805657
7	22	21	-0.088119084923528
7	23	22	0.11513733527157
7	24	23	-0.060648100331891
7	25	24	-0.025236193025485
7	26	25	0.017223817983178
7	27	26	0.063895740809384
7	28	27	-0.11192242220277
7	29	28	0.10210018288344
7	30	29	-0.070663826344534
7	31	30	-0.014095369526185
7	32	31	-0.0059681585105142
7	33	32	0.0065431934176008
7	34	33	-0.009388820196035
7	35	34	0.079981982572935
7	36	35	0.016178220929577
7	37	36	0.003301360034385
7	38	37	-0.063480991583784
7	39	38	-0.039974588430486
7	40	39	0.0073107599117783
7	41	40	0.036729830130936
7	42	41	-0.036191460043192
7	43	42	-0.0075830339849929
7	44	43	0.050661924649029
7	45	44	-0.046745968211908
7	46	45	-2.5537485260204
7	47	46	-4.4742306211542
7	48	47	-2.8923918774316
7	49	48	1.2629859492951
7	50	49	1.8919698848156
7	51	50	1.8955455814442
7	52	51	2.0529947650968
7	53	52	1.8838286247337
7	54	53	0.92329006610906
7	55	54	0.047023633376229
7	56	55	0.013162495801225
7	57	56	-0.02991668610135
7	58	57	0.073654833487234
7	59	58	-0.071867465495597
7	60	59	0.074414617719594
7	61	60	-0.031434987336397
7	62	61	0.009020881950855
7	63	62	-0.067267725220882
4	3	2	3.722822103166
4	4	3	5.6547195929041
4	5	4	7.6910999753055
4	6	5	9.65872088387
4	7	6	11.856767098923
4	8	7	13.7805296525
4	9	8	13.864000451695
4	10	9	13.848397771178
4	11	10	13.787930121664
4	12	11	13.795484245699
4	13	12	13.830441952762
4	14	13	13.769754300893
4	15	14	13.844698121375
4	16	15	13.857838162147
4	17	16	13.837506943305
4	18	17	13.841650562349
4	19	18	13.773457600772
4	20	19	13.784195582017
4	21	20	13.855510567822
4	22	21	13.767391482899
4	23	22	13.882528818171
4	24	23	13.821880717839
4	25	24	13.796644524813
4	26	25	13.813868342796
4	27	26	13.877764083606
4	28	27	13.765841661403
4	29	28	13.867941844286
4	30	29	13.797278017942
4	31	30	13.783182648416
4	32	31	13.777214489905
4	33	32	13.783757683323
4	34	33	13.774368863127
4	35	34	13.8543508457
4	36	35	13.870529066629
4	37	36	13.873830426664
4	38	37	13.81034943508
4	39	38	13.770374846649
4	40	39	13.777685606561
4	41	40	13.814415436692
4	42	41	13.778223976649
4	43	42	13.770640942664
4	44	43	13.821302867313
4	45	44	13.774556899101
4	46	45	11.220808373081
4	47	46	6.7465777519263
4	48	47	3.8541858744947
4	49	48	5.1171718237898
4	50	49	7.0091417086055
4	51	50	8.9046872900496
4	52	51	10.957682055146
4	53	52	12.84151067988
4	54	53	13.764800745989
4	55	54	13.811824379365
4	56	55	13.824986875167
4	57	56	13.795070189065
4	58	57	13.868725022553
4	59	58	13.796857557057
4	60	59	13.871272174777
4	61	60	13.83983718744
4	62	61	13.848858069391
4	63	62	13.78159034417
1	2	1	26.6
1	3	2	26.6
1	4	3	26.6
1	5	4	26.6
1	6	5	26.6
1	7	6	26.6
1	8	7	26.6
1	9	8	26.6
1	10	9	26.6
1	11	10	26.6
1	12	11	26.6
1	13	12	26.6
1	14	13	26.6
1	15	14	26.6
1	16	15	26.6
1	17	16	26.6
1	18	17	26.6
1	19	18	26.6
1	20	19	26.6
1	21	20	26.6
1	22	21	26.6
1	23	22	26.6
1	24	23	26.6
1	25	24	26.6
1	26	25	26.6
1	27	26	26.6
1	28	27	26.6
1	29	28	26.6
1	30	29	26.6
1	31	30	26.6
1	32	31	26.6
1	33	32	26.6
1	34	33	26.6
1	35	34	26.6
1	36	35	26.6
1	37	36	26.6
1	38	37	26.6
1	39	38	26.6
1	40	39	26.6
1	41	40	26.6
1	42	41	26.6
1	43	42	26.6
1	44	43	26.6
1	45	44	26.6
1	46	45	26.6
1	47	46	26.6
1	48	47	27.205343164546
1	49	48	31.538312676462
1	50	49	37.699848057022
1	51	50	45.728738733319
1	52	51	55.775784869718
1	53	52	67.770000497721
1	54	53	81.417930241073
1	55	54	95.251146493024
1	56	55	109.07753565756
1	57	56	122.905161869
1	58	57	136.75799849353
1	59	58	150.58756107909
1	60	59	164.40780507295
1	61	60	178.23719167178
1	62	61	192.05136212322
1	63	62	205.8570316518
0	2	1	238.33130028169
0	3	2	241.29043300185
0	4	3	246.13581405062
0	5	4	252.95160311503
0	6	5	261.74815797592
0	7	6	272.64644069597
0	8	7	285.48956514724
0	9	8	299.30126151605
0	10	9	313.14492636243
0	11	10	326.97829308077
0	12	11	340.769842025
0	13	12	354.60005657968
0	14	13	368.42574301749
0	15	14	382.26350665311
0	16	15	396.09961021668
0	17	16	409.91175920152
0	18	17	423.75119785696
0	19	18	437.57260656922
0	20	19	451.41684149455
0	21	20	465.24858742718
0	22	21	479.0736492265
0	23	22	492.90317593331
0	24	23	506.72775546955
0	25	24	520.54475070546
0	26	25	534.35849624225
0	27	26	548.19329699818
0	28	27	562.00841562631
0	29	28	575.8358515452
0	30	29	589.65480642845
0	31	30	603.46284124969
0	32	31	617.26635678529
0	33	32	631.08868560849
0	34	33	644.91294757927
0	35	34	658.73566558575
0	36	35	672.58467888085
0	37	36	686.42565494079
0	38	37	700.26165282157
0	39	38	714.09011008244
0	40	39	727.91991761484
0	41	40	741.7504945648
0	42	41	755.57058680873
0	43	42	769.38480766656
0	44	43	783.21804514786
0	45	44	797.01104593608
0	46	45	809.9345333379
0	47	46	818.69631130881
0	48	47	823.12320589873
0	49	48	823.4
0	50	49	823.4
0	51	50	823.4
0	52	51	823.4
0	53	52	823.4
0	54	53	823.4
0	55	54	823.4
0	56	55	823.4
0	57	56	823.4
0	58	57	823.4
0	59	58	823.4
0	60	59	823.4
0	61	60	823.4
0	62	61	823.4
0	63	62	823.4
vector 305 Sim2Scenario.uninfected[60].veinsmobility acceleration ETV
vector 306 Sim2Scenario.uninfected[60].veinsmobility co2emission ETV
vector 307 Sim2Scenario.uninfected[61].veinsmobility speed ETV
vector 308 Sim2Scenario.uninfected[62].veinsmobility posx ETV
vector 309 Sim2Scenario.uninfected[62].veinsmobility posy ETV
vector 310 Sim2Scenario.uninfected[61].veinsmobility acceleration ETV
vector 311 Sim2Scenario.uninfected[61].veinsmobility co2emission ETV
88	20	19	4.049414549631
88	21	20	5.4248356340167
88	22	21	5.9475115666634
88	23	22	7.9812376473008
88	24	23	8.2358515529932
88	25	24	2.1323276958019
88	26	25	2.037696318897
88	27	26	2.0366459426457
88	28	27	1.8103772392687
88	29	28	2.1446232052264
88	30	29	2.0270871333378
88	31	30	2.1251517084915
88	32	31	1.998777855395
88	33	32	1.7632417352597
88	34	33	2.119898590752
88	35	34	2.1657639686587
88	36	35	1.9822401447969
88	37	36	1.8965567239905
88	38	37	1.991616180208
88	39	38	2.0291724431045
88	40	39	2.0394141079036
88	41	40	1.9785060101052
88	42	41	2.3656614898044
88	43	42	1.8409621486006
88	44	43	1.8862745581964
88	45	44	1.9213693437278
88	46	45	2.118009902677
88	47	46	0.973
88	48	47	0.973
88	49	48	0.973
88	50	49	0.973
88	51	50	5.0526728052538
88	52	51	4.9860281864094
88	53	52	7.2836597322364
88	54	53	8.1840219194811
88	55	54	6.1300891356978
88	56	55	1.9662435888455
88	57	56	2.0339136707038
88	58	57	2.1388068182092
88	59	58	1.7802142703833
88	60	59	2.1401108040457
88	61	60	1.9744140197971
88	62	61	1.9352841397637
88	63	62	1.9826933901447
88	64	63	1.9617890235177
88	65	64	2.4111137789791
87	20	19	1.8328641873272
87	21	20	2.019374355576
87	22	21	1.8130298973457
87	23	22	2.1356933039566
87	24	23	1.8698716939539
87	25	24	0.03322496258188
87	26	25	0.0046900736191304
87	27	26	0.004244782787282
87	28	27	-0.061994178283493
87	29	28	0.037430568579584
87	30	29	0.0020650875475265
87	31	30	0.030519253492821
87	32	31	-0.0071353064896549
87	33	32	-0.075867235281038
87	34	33	0.03064835867146
87	35	34	0.043001670106314
87	36	35	-0.011683034321759
87	37	36	-0.036388822067529
87	38	37	-0.0075604726537133
87	39	38	0.003634849560914
87	40	39	0.0065163462003692
87	41	40	-0.011468510895503
87	42	41	0.10126802765997
87	43	42	-0.054130525493528
87	44	43	-0.039449931494891
87	45	44	-0.028094019647687
87	46	45	0.030215044725477
87	47	46	-3.3360943807475
87	48	47	-3.05021950849
87	49	48	-2.6552300861029
87	50	49	-0.33729232006162
87	51	50	2.2415648450074
87	52	51	1.6986536574518
87	53	52	2.1876690092869
87	54	53	2.0671554851974
87	55	54	1.2316218775674
87	56	55	-0.016367002676708
87	57	56	0.0038294746633625
87	58	57	0.034184355479665
87	59	58	-0.071371378873009
87	60	59	0.035747410440816
87	61	60	-0.013585390262305
87	62	61	-0.024637587380131
87	63	62	-0.010070422044954
87	64	63	-0.015902279254515
87	65	64	0.11511212222278
84	19	18	4.1265234313304
84	20	19	5.9593876186576
84	21	20	7.9787619742336
84	22	21	9.7917918715793
84	23	22	11.927485175536
84	24	23	13.79735686949
84	25	24	13.830581832072
84	26	25	13.835271905691
84	27	26	13.839516688478
84	28	27	13.777522510195
84	29	28	13.814953078774
84	30	29	13.817018166322
84	31	30	13.847537419815
84	32	31	13.840402113325
84	33	32	13.764534878044
84	34	33	13.795183236715
84	35	34	13.838184906822
84	36	35	13.8265018725
84	37	36	13.790113050432
84	38	37	13.782552577779
84	39	38	13.78618742734
84	40	39	13.79270377354
84	41	40	13.781235262644
84	42	41	13.882503290304
84	43	42	13.828372764811
84	44	43	13.788922833316
84	45	44	13.760828813668
84	46	45	13.791043858394
84	47	46	10.454949477646
84	48	47	7.4047299691563
84	49	48	4.7494998830535
84	50	49	4.4122075629919
84	51	50	6.6537724079992
84	52	51	8.352426065451
84	53	52	10.540095074738
84	54	53	12.607250559935
84	55	54	13.838872437503
84	56	55	13.822505434826
84	57	56	13.826334909489
84	58	57	13.860519264969
84	59	58	13.789147886096
84	60	59	13.824895296537
84	61	60	13.811309906275
84	62	61	13.786672318894
84	63	62	13.776601896849
84	64	63	13.760699617595
84	65	64	13.875811739818
76	18	17	23.4
76	19	18	23.4
76	20	19	23.4
76	21	20	23.4
76	22	21	23.4
76	23	22	23.4
76	24	23	23.4
76	25	24	23.4
76	26	25	23.4
76	27	26	23.4
76	28	27	23.4
76	29	28	23.4
76	30	29	23.4
76	31	30	23.4
76	32	31	23.4
76	33	32	23.4
76	34	33	23.4
76	35	34	23.4
76	36	35	23.4
76	37	36	23.4
76	38	37	23.4
76	39	38	23.4
76	40	39	23.4
76	41	40	23.4
76	42	41	23.4
76	43	42	23.4
76	44	43	23.4
76	45	44	23.4
76	46	45	23.4
76	47	46	23.4
76	48	47	23.4
76	49	48	23.4
76	50	49	23.854105914152
76	51	50	27.188990318069
76	52	51	34.564252142164
76	53	52	44.080337503809
76	54	53	55.709756320275
76	55	54	69.218337585692
76	56	55	83.031130559431
76	57	56	96.859991439973
76	58	57	110.69196561625
76	59	58	124.51866562282
76	60	59	138.3564571955
76	61	60	152.18050507032
76	62	61	166.00080889131
76	63	62	179.8239253449
76	64	63	193.63207865796
76	65	64	207.45692349137
75	18	17	611.61862955957
75	19	18	608.4254937753
75	20	19	603.30776201075
75	21	20	596.24256614393
75	22	21	587.32066832446
75	23	22	576.36273938005
75	24	23	563.37995352453
75	25	24	549.56039072935
75	26	25	535.70641723947
75	27	26	521.8828633911
75	28	27	508.05190303861
75	29	28	494.22032290871
75	30	29	480.38631404932
75	31	30	466.60202609683
75	32	31	452.7806500216
75	33	32	438.95676811144
75	34	33	425.14451277999
75	35	34	411.32358882921
75	36	35	397.51289974276
75	37	36	383.70561058998
75	38	37	369.90174921012
75	39	38	356.07877763979
75	40	39	342.24953349396
75	41	40	328.4412781801
75	42	41	314.6268026092
75	43	42	300.80710505418
75	44	43	286.99774850123
75	45	44	273.17888225928
75	46	45	259.36458448688
75	47	46	247.46702243742
75	48	47	238.76902236967
75	49	48	232.92568315449
75	50	49	229.02125860094
75	51	50	224.64660580916
75	52	51	223.4
75	53	52	223.4
75	54	53	223.4
75	55	54	223.4
75	56	55	223.4
75	57	56	223.4
75	58	57	223.4
75	59	58	223.4
75	60	59	223.4
75	61	60	223.4
75	62	61	223.4
75	63	62	223.4
75	64	63	223.4
75	65	64	223.4
vector 312 Sim2Scenario.uninfected[63].veinsmobility posx ETV
vector 313 Sim2Scenario.uninfected[63].veinsmobility posy ETV
vector 314 Sim2Scenario.exploited[64].veinsmobility posx ETV
vector 315 Sim2Scenario.exploited[64].veinsmobility posy ETV
vector 316 Sim2Scenario.uninfected[62].veinsmobility speed ETV
vector 317 Sim2Scenario.uninfected[65].veinsmobility posx ETV
vector 318 Sim2Scenario.uninfected[65].veinsmobility posy ETV
vector 319 Sim2Scenario.uninfected[62].veinsmobility acceleration ETV
vector 320 Sim2Scenario.uninfected[62].veinsmobility co2emission ETV
vector 321 Sim2Scenario.uninfected[63].veinsmobility speed ETV
vector 322 Sim2Scenario.exploited[64].veinsmobility speed ETV
vector 323 Sim2Scenario.uninfected[66].veinsmobility posx ETV
vector 324 Sim2Scenario.uninfected[66].veinsmobility posy ETV
vector 325 Sim2Scenario.uninfected[63].veinsmobility acceleration ETV
vector 326 Sim2Scenario.uninfected[63].veinsmobility co2emission ETV
vector 327 Sim2Scenario.exploited[64].veinsmobility acceleration ETV
vector 328 Sim2Scenario.exploited[64].veinsmobility co2emission ETV
vector 329 Sim2Scenario.uninfected[65].veinsmobility speed ETV
vector 330 Sim2Scenario.uninfected[67].veinsmobility posx ETV
vector 331 Sim2Scenario.uninfected[67].veinsmobility posy ETV
vector 332 Sim2Scenario.uninfected[65].veinsmobility acceleration ETV
vector 333 Sim2Scenario.uninfected[65].veinsmobility co2emission ETV
vector 334 Sim2Scenario.uninfected[66].veinsmobility speed ETV
vector 335 Sim2Scenario.uninfected[68].veinsmobility posx ETV
vector 336 Sim2Scenario.uninfected[68].veinsmobility posy ETV
vector 337 Sim2Scenario.uninfected[66].veinsmobility acceleration ETV
vector 338 Sim2Scenario.uninfected[66].veinsmobility co2emission ETV
vector 339 Sim2Scenario.uninfected[67].veinsmobility speed ETV
vector 340 Sim2Scenario.exploited[69].veinsmobility posx ETV
vector 341 Sim2Scenario.exploited[69].veinsmobility posy ETV
vector 342 Sim2Scenario.uninfected[67].veinsmobility acceleration ETV
vector 343 Sim2Scenario.uninfected[67].veinsmobility co2emission ETV
vector 344 Sim2Scenario.uninfected[68].veinsmobility speed ETV
18	6	5	4.0931528521982
18	7	6	5.7190741242088
18	8	7	6.1749091097848
18	9	8	7.0927377317887
18	10	9	8.0164398552752
18	11	10	2.8535438728518
18	12	11	2.0289928328033
18	13	12	1.8810522803744
18	14	13	2.2640623022785
18	15	14	1.7179053222839
18	16	15	2.3318076288463
18	17	16	1.8661754768186
18	18	17	2.0542684590378
18	19	18	0.973
18	20	19	0.973
18	21	20	1.4313728830644
18	22	21	3.3143217858244
18	23	22	6.6228711704383
18	24	23	6.9572416738966
18	25	24	7.7826164543816
18	26	25	3.6835186455311
18	27	26	1.9444984154237
18	28	27	2.1105704348401
18	29	28	2.1005857759288
18	30	29	1.8199674801356
18	31	30	2.0495512797582
18	32	31	2.334155723993
18	33	32	1.6937369673786
18	34	33	0.973
18	35	34	0.973
18	36	35	0.973
18	37	36	0.973
18	38	37	5.0426132822721
18	39	38	4.7739650183076
18	40	39	5.8868310836803
18	41	40	6.1879684461301
18	42	41	8.1555335416772
18	43	42	4.5426357853605
18	44	43	1.8289696565347
18	45	44	2.2847617079493
18	46	45	1.9203561304596
18	47	46	1.955606409737
18	48	47	2.0662986524141
18	49	48	2.0964448907653
18	50	49	1.7299851952515
18	51	50	1.9644889441539
18	52	51	0.973
18	53	52	0.973
18	54	53	0.973
18	55	54	0.973
18	56	55	5.2018018384095
18	57	56	1.8019384931138
18	58	57	4.0146450404042
18	59	58	6.0714021109826
18	60	59	8.1782161466362
18	61	60	8.2332987577029
18	62	61	2.3706990402253
18	63	62	1.7967773541545
18	64	63	2.0767766929369
18	65	64	2.2714094702915
18	66	65	1.9985147145294
18	67	66	1.8983095992194
18	68	67	2.0290443231602
18	69	68	1.8129895555925
18	70	69	2.3870537968421
18	71	70	1.6442855029171
17	6	5	1.8934586951672
17	7	6	2.1563206688361
17	8	7	1.88209418691
17	9	8	1.8559557857434
17	10	9	1.8352935877116
17	11	10	0.24849788005181
17	12	11	0.0014822860877022
17	13	12	-0.041685313740745
17	14	13	0.070846990777644
17	15	14	-0.090231728134675
17	16	15	0.091062660592142
17	17	16	-0.046825560478029
17	18	17	0.0092863154900265
17	19	18	-2.8577496099914
17	20	19	-4.4851412721979
17	21	20	-0.010968077548314
17	22	21	0.99907388916472
17	23	22	2.1392287285789
17	24	23	1.860421133386
17	25	24	1.8129242773377
17	26	25	0.50028137418209
17	27	26	-0.021776061223354
17	28	27	0.027332575065085
17	29	28	0.023575769350863
17	30	29	-0.059052122461143
17	31	30	0.0097973550111057
17	32	31	0.092043657747562
17	33	32	-0.097183292920235
17	34	33	-2.0143468411025
17	35	34	-3.1955701857764
17	36	35	-2.8414313173092
17	37	36	-2.4110753935098
17	38	37	2.5619180149538
17	39	38	1.7659292928502
17	40	39	1.8521675382229
17	41	40	1.6434729233384
17	42	41	1.9646489568427
17	43	42	0.75387914530853
17	44	43	-0.057054706830531
17	45	44	0.077183401987423
17	46	45	-0.030887038733345
17	47	46	-0.019753984601701
17	48	47	0.013049713510554
17	49	48	0.021402609876821
17	50	49	-0.086204039524308
17	51	50	-0.015135342213325
17	52	51	-2.3288604187967
17	53	52	-3.2243120248085
17	54	53	-2.7398274270374
17	55	54	-1.8141107004487
17	56	55	2.5301230917731
17	57	56	0.23148711092838
17	58	57	1.3321774096414
17	59	58	1.8981358632748
17	60	59	2.2177627507132
17	61	60	1.8781453878945
17	62	61	0.10411174234702
17	63	62	-0.06617812720593
17	64	63	0.017571769643109
17	65	64	0.073471043505705
17	66	65	-0.0079208330973053
17	67	66	-0.036890157733577
17	68	67	0.0022723699035119
17	69	68	-0.060973350126297
17	70	69	0.10789514438948
17	71	70	-0.11172993792454
14	5	4	3.9817542820289
14	6	5	5.8752129771961
14	7	6	8.0315336460323
14	8	7	9.9136278329422
14	9	8	11.769583618686
14	10	9	13.604877206397
14	11	10	13.853375086449
14	12	11	13.854857372537
14	13	12	13.813172058796
14	14	13	13.884019049574
14	15	14	13.793787321439
14	16	15	13.884849982031
14	17	16	13.838024421553
14	18	17	13.847310737043
14	19	18	10.989561127052
14	20	19	6.5044198548538
14	21	20	6.4934517773055
14	22	21	7.4925256664702
14	23	22	9.6317543950491
14	24	23	11.492175528435
14	25	24	13.305099805773
14	26	25	13.805381179955
14	27	26	13.783605118732
14	28	27	13.810937693797
14	29	28	13.834513463147
14	30	29	13.775461340686
14	31	30	13.785258695697
14	32	31	13.877302353445
14	33	32	13.780119060525
14	34	33	11.765772219422
14	35	34	8.5702020336458
14	36	35	5.7287707163366
14	37	36	3.3176953228269
14	38	37	5.8796133377807
14	39	38	7.6455426306309
14	40	39	9.4977101688537
14	41	40	11.141183092192
14	42	41	13.105832049035
14	43	42	13.859711194343
14	44	43	13.802656487513
14	45	44	13.8798398895
14	46	45	13.848952850767
14	47	46	13.829198866165
14	48	47	13.842248579676
14	49	48	13.863651189553
14	50	49	13.777447150028
14	51	50	13.762311807815
14	52	51	11.433451389018
14	53	52	8.2091393642098
14	54	53	5.4693119371724
14	55	54	3.6552012367237
14	56	55	6.1853243284968
14	57	56	6.4168114394252
14	58	57	7.7489888490667
14	59	58	9.6471247123415
14	60	59	11.864887463055
14	61	60	13.743032850949
14	62	61	13.847144593296
14	63	62	13.78096646609
14	64	63	13.798538235733
14	65	64	13.872009279239
14	66	65	13.864088446142
14	67	66	13.827198288408
14	68	67	13.829470658312
14	69	68	13.768497308185
14	70	69	13.876392452575
14	71	70	13.76466251465
6	4	3	438.34775942317
6	5	4	441.4088176292
6	6	5	446.45434897665
6	7	6	453.53617424597
6	8	7	462.57975371523
6	9	8	473.44364339012
6	10	9	486.20180991347
6	11	10	500.03542001702
6	12	11	513.85840024455
6	13	12	527.67166847357
6	14	13	541.50101008848
6	15	14	555.3072618635
6	16	15	569.13437337156
6	17	16	582.96147125182
6	18	17	596.80648945781
6	19	18	609.55458145657
6	20	19	618.07172840806
6	21	20	623.0716354357
6	22	21	623.4
6	23	22	623.4
6	24	23	623.4
6	25	24	623.4
6	26	25	623.4
6	27	26	623.4
6	28	27	623.4
6	29	28	623.4
6	30	29	623.4
6	31	30	623.4
6	32	31	623.4
6	33	32	623.4
6	34	33	623.4
6	35	34	623.4
6	36	35	623.4
6	37	36	623.4
6	38	37	623.4
6	39	38	623.4
6	40	39	623.4
6	41	40	623.4
6	42	41	623.4
6	43	42	623.4
6	44	43	623.4
6	45	44	623.4
6	46	45	623.4
6	47	46	623.4
6	48	47	623.4
6	49	48	623.4
6	50	49	623.4
6	51	50	623.4
6	52	51	623.4
6	53	52	623.4
6	54	53	623.4
6	55	54	623.4
6	56	55	623.24176028367
6	57	56	619.24829231872
6	58	57	612.321932672
6	59	58	603.50721118628
6	60	59	592.63511962499
6	61	60	579.72233727597
6	62	61	565.88271991229
6	63	62	552.05741564756
6	64	63	538.2409095599
6	65	64	524.42172603008
6	66	65	510.60194314394
6	67	66	496.75595850303
6	68	67	482.9425954428
6	69	68	469.11395028502
6	70	69	455.27850831478
6	71	70	441.47775187862
5	4	3	423.4
5	5	4	423.4
5	6	5	423.4
5	7	6	423.4
5	8	7	423.4
5	9	8	423.4
5	10	9	423.4
5	11	10	423.4
5	12	11	423.4
5	13	12	423.4
5	14	13	423.4
5	15	14	423.4
5	16	15	423.4
5	17	16	423.4
5	18	17	423.4
5	19	18	423.4
5	20	19	423.36118165599
5	21	20	420.09855195011
5	22	21	413.33455912997
5	23	22	404.67935367042
5	24	23	393.98646390629
5	25	24	381.48668560657
5	26	25	367.71750142574
5	27	26	353.88259634633
5	28	27	340.05420481286
5	29	28	326.21917033195
5	30	29	312.39378905771
5	31	30	298.5758021284
5	32	31	284.72145293506
5	33	32	270.90821397392
5	34	33	257.84018232933
5	35	34	247.87806947393
5	36	35	240.91306498241
5	37	36	236.55362816675
5	38	37	231.80974104243
5	39	38	224.97304663859
5	40	39	216.31487346703
5	41	40	205.91546048563
5	42	41	193.69961323699
5	43	42	179.97406256765
5	44	43	166.14698294957
5	45	44	152.31363537948
5	46	45	138.48928285747
5	47	46	124.67075052213
5	48	47	110.84425034208
5	49	48	97.017521255216
5	50	49	83.18873886814
5	51	50	69.393830347482
5	52	51	56.568584954941
5	53	52	46.966687827903
5	54	53	40.322659669299
5	55	54	36.153507363614
5	56	55	31.092321985711
5	57	56	26.806898902674
5	58	57	26.6
5	59	58	26.6
5	60	59	26.6
5	61	60	26.6
5	62	61	26.6
5	63	62	26.6
5	64	63	26.6
5	65	64	26.6
5	66	65	26.6
5	67	66	26.6
5	68	67	26.6
5	69	68	26.6
5	70	69	26.6
5	71	70	26.6
vector 345 Sim2Scenario.uninfected[68].veinsmobility acceleration ETV
vector 346 Sim2Scenario.uninfected[68].veinsmobility co2emission ETV
vector 347 Sim2Scenario.exploited[69].veinsmobility speed ETV
vector 348 Sim2Scenario.uninfected[70].veinsmobility posx ETV
vector 349 Sim2Scenario.uninfected[70].veinsmobility posy ETV
vector 350 Sim2Scenario.uninfected[71].veinsmobility posx ETV
vector 351 Sim2Scenario.uninfected[71].veinsmobility posy ETV
vector 352 Sim2Scenario.exploited[69].veinsmobility acceleration ETV
vector 353 Sim2Scenario.exploited[69].veinsmobility co2emission ETV
33	9	8	4.1707787383362
33	10	9	5.415033008706
33	11	10	6.2944863314161
33	12	11	6.8903826578306
33	13	12	8.9859220848101
33	14	13	2.3064333694372
33	15	14	1.9009242713708
33	16	15	2.2709315840464
33	17	16	1.900028569126
33	18	17	1.8043232809045
33	19	18	2.3769997998863
33	20	19	1.9969657051444
33	21	20	0.973
33	22	21	0.973
33	23	22	0.973
33	24	23	0.973
33	25	24	0.973
33	26	25	1.3127767670928
33	27	26	3.5231031298029
33	28	27	4.6805668634447
33	29	28	5.8543064362483
33	30	29	7.3807662477561
33	31	30	8.0567434550109
33	32	31	4.3654877567422
33	33	32	1.9730544093843
33	34	33	2.2999793541843
33	35	34	1.7476313838416
33	36	35	2.231986380941
33	37	36	1.8276545966622
33	38	37	2.1877831897007
33	39	38	2.0015798742565
33	40	39	2.1077159301832
33	41	40	1.8391899429821
33	42	41	2.2731135070531
33	43	42	1.6920833081352
33	44	43	2.1934591032796
33	45	44	1.9481141468883
33	46	45	2.147111400357
33	47	46	1.8098929202251
33	48	47	2.0458778959508
33	49	48	2.128581238446
33	50	49	1.8711590495242
33	51	50	2.2692681427383
33	52	51	2.0699213547033
33	53	52	1.7013537481525
33	54	53	1.7363109603739
33	55	54	0.973
33	56	55	0.973
33	57	56	0.973
33	58	57	0.973
33	59	58	5.260923098268
33	60	59	4.8542098840984
33	61	60	6.3012960416664
33	62	61	7.3264216019857
33	63	62	7.7476264567009
33	64	63	2.090595764824
33	65	64	1.8830937394372
33	66	65	2.0157261122524
33	67	66	2.1636250393488
33	68	67	1.8768369556518
33	69	68	2.30011061997
33	70	69	1.8224822842733
33	71	70	1.9803441331245
33	72	71	1.9462378343402
33	73	72	2.0957934724135
32	9	8	1.9499414177705
32	10	9	2.0353051653411
32	11	10	1.946137789574
32	12	11	1.8052280764165
32	13	12	2.1023168102838
32	14	13	0.084943687045429
32	15	14	-0.035602457672358
32	16	15	0.072969764864537
32	17	16	-0.036873145825229
32	18	17	-0.063913967977278
32	19	18	0.10453179631149
32	20	19	-0.0087697554216728
32	21	20	-2.9331489734384
32	22	21	-3.1845301454363
32	23	22	-2.6801963721006
32	24	23	-0.82817415861049
32	25	24	-0.7280708594404
32	26	25	0.031696646185592
32	27	26	1.69618947607
32	28	27	1.8630741938297
32	29	28	1.9421823483706
32	30	29	2.0872504153289
32	31	30	1.9377802551538
32	32	31	0.70669098975604
32	33	32	-0.012922213261481
32	34	33	0.082547242527362
32	35	34	-0.080867191154976
32	36	35	0.062817627012265
32	37	36	-0.056919671336656
32	38	37	0.049806066688618
32	39	38	-0.0058750307350426
32	40	39	0.025166058868635
32	41	40	-0.053850576488767
32	42	41	0.073992742078845
32	43	42	-0.097541807440576
32	44	43	0.051726413555444
32	45	44	-0.02129234579159
32	46	45	0.037287365149242
32	47	46	-0.062195263209288
32	48	47	0.0085987258469693
32	49	48	0.032424812209792
32	50	49	-0.043674492787103
32	51	50	0.073593997654969
32	52	51	0.013451557618101
32	53	52	-0.094638300891965
32	54	53	-0.082107686378633
32	55	54	-3.4370351042505
32	56	55	-3.0755846768445
32	57	56	-2.6394956625576
32	58	57	-0.16150307390517
32	59	58	2.3457853516634
32	60	59	1.6331278830946
32	61	60	1.8674762523896
32	62	61	1.8761680842494
32	63	62	1.7200998252234
32	64	63	0.020505009158514
32	65	64	-0.040607932580169
32	66	65	-0.00069612270221064
32	67	66	0.042369314266834
32	68	67	-0.04246803689748
32	69	68	0.081863687394653
32	70	69	-0.059402847818566
32	71	70	-0.011654508654027
32	72	71	-0.021291562092957
32	73	72	0.022988643231802
29	8	7	3.9208195363214
29	9	8	5.8707609540919
29	10	9	7.906066119433
29	11	10	9.852203909007
29	12	11	11.657431985423
29	13	12	13.759748795707
29	14	13	13.844692482753
29	15	14	13.80909002508
29	16	15	13.882059789945
29	17	16	13.84518664412
29	18	17	13.781272676142
29	19	18	13.885804472454
29	20	19	13.877034717032
29	21	20	10.943885743594
29	22	21	7.7593555981576
29	23	22	5.079159226057
29	24	23	4.2509850674465
29	25	24	3.5229142080061
29	26	25	3.5546108541917
29	27	26	5.2508003302617
29	28	27	7.1138745240914
29	29	28	9.0560568724619
29	30	29	11.143307287791
29	31	30	13.081087542945
29	32	31	13.787778532701
29	33	32	13.774856319439
29	34	33	13.857403561966
29	35	34	13.776536370812
29	36	35	13.839353997824
29	37	36	13.782434326487
29	38	37	13.832240393176
29	39	38	13.826365362441
29	40	39	13.851531421309
29	41	40	13.797680844821
29	42	41	13.871673586899
29	43	42	13.774131779459
29	44	43	13.825858193014
29	45	44	13.804565847223
29	46	45	13.841853212372
29	47	46	13.779657949163
29	48	47	13.78825667501
29	49	48	13.820681487219
29	50	49	13.777006994432
29	51	50	13.850600992087
29	52	51	13.864052549705
29	53	52	13.769414248813
29	54	53	13.687306562435
29	55	54	10.250271458184
29	56	55	7.1746867813398
29	57	56	4.5351911187822
29	58	57	4.3736880448771
29	59	58	6.7194733965404
29	60	59	8.352601279635
29	61	60	10.220077532025
29	62	61	12.096245616274
29	63	62	13.816345441497
29	64	63	13.836850450656
29	65	64	13.796242518076
29	66	65	13.795546395374
29	67	66	13.83791570964
29	68	67	13.795447672743
29	69	68	13.877311360138
29	70	69	13.817908512319
29	71	70	13.806254003665
29	72	71	13.784962441572
29	73	72	13.807951084804
21	7	6	211.64598335749
21	8	7	208.61652980736
21	9	8	203.64374644641
21	10	9	196.69506974543
21	11	10	187.72268683345
21	12	11	176.94127106208
21	13	12	164.15352929862
21	14	13	150.33264270355
21	15	14	136.49465471823
21	16	15	122.65329277695
21	17	16	108.83304578485
21	18	17	94.999810168844
21	19	18	81.168550114779
21	20	19	67.342845965671
21	21	20	54.945920105132
21	22	21	45.792171215368
21	23	22	39.54417795383
21	24	23	35.472885543852
21	25	24	31.356110592024
21	26	25	32.141734034463
21	27	26	36.51847052971
21	28	27	42.799310922299
21	29	28	50.92646401278
21	30	29	61.163259458332
21	31	30	73.334606258128
21	32	31	87.046492512512
21	33	32	100.87995284866
21	34	33	114.70787562228
21	35	34	128.52031306078
21	36	35	142.33888216698
21	37	36	156.14395774907
21	38	37	169.95415742486
21	39	38	183.80246455677
21	40	39	197.62542127831
21	41	40	211.45736241659
21	42	41	225.29208258635
21	43	42	239.13042890887
21	44	43	252.94739018465
21	45	44	266.77305536418
21	46	45	280.56780491779
21	47	46	294.39145287497
21	48	47	308.19734432393
21	49	48	322.0057865299
21	50	49	335.85096276347
21	51	50	349.68657255464
21	52	51	363.53020174724
21	53	52	377.35278926892
21	54	53	391.17208650838
21	55	54	402.92326509062
21	56	55	411.48906971127
21	57	56	417.24149741117
21	58	57	421.10082178712
21	59	58	425.41383496823
21	60	59	426.6
21	61	60	426.6
21	62	61	426.6
21	63	62	426.6
21	64	63	426.6
21	65	64	426.6
21	66	65	426.6
21	67	66	426.6
21	68	67	426.6
21	69	68	426.6
21	70	69	426.6
21	71	70	426.6
21	72	71	426.6
21	73	72	426.6
20	7	6	626.6
20	8	7	626.6
20	9	8	626.6
20	10	9	626.6
20	11	10	626.6
20	12	11	626.6
20	13	12	626.6
20	14	13	626.6
20	15	14	626.6
20	16	15	626.6
20	17	16	626.6
20	18	17	626.6
20	19	18	626.6
20	20	19	626.6
20	21	20	626.6
20	22	21	626.6
20	23	22	626.6
20	24	23	626.6
20	25	24	626.03740706135
20	26	25	623.43884397702
20	27	26	623.4
20	28	27	623.4
20	29	28	623.4
20	30	29	623.4
20	31	30	623.4
20	32	31	623.4
20	33	32	623.4
20	34	33	623.4
20	35	34	623.4
20	36	35	623.4
20	37	36	623.4
20	38	37	623.4
20	39	38	623.4
20	40	39	623.4
20	41	40	623.4
20	42	41	623.4
20	43	42	623.4
20	44	43	623.4
20	45	44	623.4
20	46	45	623.4
20	47	46	623.4
20	48	47	623.4
20	49	48	623.4
20	50	49	623.4
20	51	50	623.4
20	52	51	623.4
20	53	52	623.4
20	54	53	623.4
20	55	54	623.4
20	56	55	623.4
20	57	56	623.4
20	58	57	623.87154596959
20	59	58	627.28972494704
20	60	59	634.7308626914
20	61	60	644.09321091956
20	62	61	655.32085802758
20	63	62	668.49060627576
20	64	63	682.30859598229
20	65	64	696.1333725311
20	66	65	709.96620406794
20	67	66	723.79093094402
20	68	67	737.61067349194
20	69	68	751.43940389211
20	70	69	765.24796364373
20	71	70	779.07131008662
20	72	71	792.90069552442
20	73	72	806.71655435557
vector 354 Sim2Scenario.uninfected[72].veinsmobility posx ETV
vector 355 Sim2Scenario.uninfected[72].veinsmobility posy ETV
vector 356 Sim2Scenario.uninfected[70].veinsmobility speed ETV
vector 357 Sim2Scenario.uninfected[71].veinsmobility speed ETV
2	3	2	211.61882214952
2	4	3	208.5598590294
2	5	4	203.53042320467
2	6	5	196.46786351197
2	7	6	187.59526837881
2	8	7	176.80308745446
2	9	8	164.00579972206
2	10	9	150.19162237805
2	11	10	136.38893132047
2	12	11	122.56872522552
2	13	12	108.73286307523
2	14	13	94.883514324991
2	15	14	81.047918083856
2	16	15	67.214632219221
2	17	16	53.377174530606
2	18	17	40.346166538036
2	19	18	31.429673731245
2	20	19	26.873855993091
2	21	20	26.6
2	22	21	26.6
2	23	22	26.6
2	24	23	26.6
2	25	24	26.6
2	26	25	26.6
2	27	26	26.6
2	28	27	26.6
2	29	28	26.6
2	30	29	26.6
2	31	30	26.6
2	32	31	26.6
2	33	32	26.6
2	34	33	26.6
2	35	34	26.6
2	36	35	26.6
2	37	36	26.6
2	38	37	26.6
2	39	38	26.6
2	40	39	26.6
2	41	40	26.6
2	42	41	26.6
2	43	42	26.6
2	44	43	26.6
2	45	44	26.6
2	46	45	26.6
2	47	46	26.6
2	48	47	26.6
2	49	48	26.6
2	50	49	26.6
2	51	50	26.6
2	52	51	26.6
2	53	52	26.6
2	54	53	26.6
2	55	54	26.6
2	56	55	26.6
2	57	56	26.6
2	58	57	26.6
2	59	58	26.6
2	60	59	26.6
2	61	60	26.6
2	62	61	26.6
2	63	62	26.6
2	64	63	26.6
2	65	64	26.6
2	66	65	26.6
2	67	66	26.6
2	68	67	26.6
2	69	68	26.6
2	70	69	26.6
2	71	70	26.6
2	72	71	26.6
2	73	72	26.6
2	74	73	26.6
3	3	2	823.4
3	4	3	823.4
3	5	4	823.4
3	6	5	823.4
3	7	6	823.4
3	8	7	823.4
3	9	8	823.4
3	10	9	823.4
3	11	10	823.4
3	12	11	823.4
3	13	12	823.4
3	14	13	823.4
3	15	14	823.4
3	16	15	823.4
3	17	16	823.4
3	18	17	823.4
3	19	18	823.4
3	20	19	822.78975998848
3	21	20	818.47685827264
3	22	21	812.25016879525
3	23	22	804.20671423934
3	24	23	794.30309122408
3	25	24	782.49944123455
3	26	25	768.97077323683
3	27	26	755.13492622376
3	28	27	741.29604459429
3	29	28	727.47473874959
3	30	29	713.62527307277
3	31	30	699.80830943416
3	32	31	686.00377078788
3	33	32	672.18181897047
3	34	33	658.34813323317
3	35	34	644.5403492187
3	36	35	630.72241594701
3	37	36	616.90695601442
3	38	37	603.09275096876
3	39	38	589.2669670655
3	40	39	575.44291454755
3	41	40	561.62692105392
3	42	41	547.81469299497
3	43	42	533.98733867488
3	44	43	520.16247097339
3	45	44	506.34427771892
3	46	45	492.5320231963
3	47	46	478.68212509319
3	48	47	464.8542133752
3	49	48	451.05278908572
3	50	49	437.22881256894
3	51	50	423.39942771363
3	52	51	409.58988235889
3	53	52	395.75230101886
3	54	53	381.9266231245
3	55	54	368.10260354609
3	56	55	354.28634827118
3	57	56	340.45590639585
3	58	57	326.64241507508
3	59	58	312.80575432214
3	60	59	298.98070462783
3	61	60	285.16449330057
3	62	61	271.32678210611
3	63	62	258.72560114292
3	64	63	248.41957655953
3	65	64	236.9996499338
3	66	65	223.61206097542
3	67	66	209.78317507396
3	68	67	195.97430281109
3	69	68	182.18375833751
3	70	69	168.3578734815
3	71	70	154.53229490816
3	72	71	140.70334840338
3	73	72	126.87054980454
3	74	73	113.06934233229
9	4	3	3.8605596513442
9	5	4	5.9418282538514
9	6	5	7.8834085376422
9	7	6	9.7317548171735
9	8	7	11.675566087542
9	9	8	13.750384700955
9	10	9	13.772424752957
9	11	10	13.762037173596
9	12	11	13.877448550137
9	13	12	13.824554434547
9	14	13	13.838320645229
9	15	14	13.823618242634
9	16	15	13.775795958119
9	17	16	13.859415830066
9	18	17	11.38226645344
9	19	18	6.9503049619015
9	20	19	3.8817500862619
9	21	20	5.1675830750819
9	22	21	7.1193339410052
9	23	22	8.8684585530171
9	24	23	10.688330855209
9	25	24	12.686462600254
9	26	25	13.876155608599
9	27	26	13.884797780414
9	28	27	13.813620001134
9	29	28	13.856167169709
9	30	29	13.836436825341
9	31	30	13.845304175457
9	32	31	13.815042639528
9	33	32	13.87059934011
9	34	33	13.797412919258
9	35	34	13.816240782407
9	36	35	13.792843529992
9	37	36	13.779210215341
9	38	37	13.810345520189
9	39	38	13.839041387788
9	40	39	13.828420465186
9	41	40	13.763259074087
9	42	41	13.786584923815
9	43	42	13.780404043065
9	44	43	13.833625908312
9	45	44	13.78315357635
9	46	45	13.792041744846
9	47	46	13.868689351704
9	48	47	13.803582467826
9	49	48	13.784098836218
9	50	49	13.879367308056
9	51	50	13.806135049732
9	52	51	13.868064316963
9	53	52	13.874934803445
9	54	53	13.760563863327
9	55	54	13.889889416588
9	56	55	13.785271101515
9	57	56	13.872098603752
9	58	57	13.77543911542
9	59	58	13.855114103244
9	60	59	13.828816329127
9	61	60	13.762717650414
9	62	61	13.831528342704
9	63	62	11.128123087911
9	64	63	10.257406900564
9	65	64	12.352953285264
9	66	65	13.888811328367
9	67	66	13.813665636384
9	68	67	13.849811019325
9	69	68	13.831027015967
9	70	69	13.761607811078
9	71	70	13.797251619841
9	72	71	13.883565417551
9	73	72	13.848983056368
9	74	73	13.768205549067
12	5	4	2.0812686025072
12	6	5	1.9415802837908
12	7	6	1.8483462795313
12	8	7	1.9438112703687
12	9	8	2.0748186134128
12	10	9	0.022040052001694
12	11	10	-0.010387579360977
12	12	11	0.11541137654102
12	13	12	-0.052894115590025
12	14	13	0.013766210682224
12	15	14	-0.014702402595431
12	16	15	-0.047822284514549
12	17	16	0.083619871947448
12	18	17	-2.4771493766264
12	19	18	-4.4319614915386
12	20	19	-3.0685548756396
12	21	20	1.28583298882
12	22	21	1.9517508659232
12	23	22	1.7491246120119
12	24	23	1.8198723021918
12	25	24	1.9981317450455
12	26	25	1.1896930083446
12	27	26	0.0086421718145733
12	28	27	-0.071177779280115
12	29	28	0.042547168575693
12	30	29	-0.019730344368146
12	31	30	0.0088673501159064
12	32	31	-0.030261535928584
12	33	32	0.055556700581219
12	34	33	-0.073186420851853
12	35	34	0.018827863149346
12	36	35	-0.023397252415307
12	37	36	-0.013633314650505
12	38	37	0.031135304847266
12	39	38	0.028695867599453
12	40	39	-0.010620922602246
12	41	40	-0.065161391098519
12	42	41	0.023325849727263
12	43	42	-0.0061808807495982
12	44	43	0.053221865247469
12	45	44	-0.050472331962082
12	46	45	0.0088881684956128
12	47	46	0.076647606857588
12	48	47	-0.065106883877888
12	49	48	-0.019483631607146
12	50	49	0.095268471837045
12	51	50	-0.073232258323115
12	52	51	0.061929267230443
12	53	52	0.0068704864825122
12	54	53	-0.1143709401181
12	55	54	0.12932555326028
12	56	55	-0.10461831507273
12	57	56	0.086827502236702
12	58	57	-0.09665948833106
12	59	58	0.079674987823235
12	60	59	-0.026297774116973
12	61	60	-0.066098678712734
12	62	61	0.068810692289844
12	63	62	-2.7034052547926
12	64	63	-0.87071618734727
12	65	64	2.0955463847006
12	66	65	1.5358580431024
12	67	66	-0.07514569198247
12	68	67	0.036145382940303
12	69	68	-0.018784003357867
12	70	69	-0.069419204888401
12	71	70	0.035643808762543
12	72	71	0.086313797710464
12	73	72	-0.03458236118313
12	74	73	-0.080777507300953
13	5	4	4.3963491482435
13	6	5	5.2243668643481
13	7	6	5.9996266345595
13	8	7	7.2897778672873
13	9	8	8.8891102605953
13	10	9	2.0888619953199
13	11	10	1.9802089545085
13	12	11	2.4123263422403
13	13	12	1.8447448357645
13	14	13	2.0682778386761
13	15	14	1.9718974112539
13	16	15	1.8572791474781
13	17	16	2.3038062721852
13	18	17	0.973
13	19	18	0.973
13	20	19	0.973
13	21	20	2.9733923617103
13	22	21	4.8355059772112
13	23	22	5.3406501698587
13	24	23	6.4261900742259
13	25	24	8.0197807153389
13	26	25	6.0047216890572
13	27	26	2.0560027474201
13	28	27	1.7829102278322
13	29	28	2.1662556231899
13	30	29	1.9563837647007
13	31	30	2.0526625883487
13	32	31	1.9192572669087
13	33	32	2.2113569808792
13	34	33	1.7748712643201
13	35	34	2.0828233668902
13	36	35	1.9399933835482
13	37	36	1.9711184893176
13	38	37	2.1231632656911
13	39	38	2.1181467770344
13	40	39	1.9859686043067
13	41	40	1.7986472358878
13	42	41	2.094637570892
13	43	42	1.9959850901695
13	44	43	2.1993280756136
13	45	44	1.8491336779334
13	46	45	2.0472298876684
13	47	46	2.2816307224531
13	48	47	1.8022636043497
13	49	48	1.9521610151511
13	50	49	2.345198137467
13	51	50	1.775446119675
13	52	51	2.2323640231351
13	53	52	2.0490555587817
13	54	53	1.6352246555784
13	55	54	2.4605143071996
13	56	55	1.669435062544
13	57	56	2.3160731137672
13	58	57	1.6951135825573
13	59	58	2.2901108490102
13	60	59	1.9337607227741
13	61	60	1.7954923883622
13	62	61	2.251052526323
13	63	62	0.973
13	64	63	0.973
13	65	64	8.1186120432963
13	66	65	7.1683215757787
13	67	66	1.769704507692
13	68	67	2.1441778732959
13	69	68	1.9590160205113
13	70	69	1.7843855922562
13	71	70	2.1367333113722
13	72	71	2.3157594369577
13	73	72	1.9080254418793
13	74	73	1.747251523207
15	6	5	426.6
15	7	6	426.6
15	8	7	426.6
15	9	8	426.6
15	10	9	426.6
15	11	10	426.6
15	12	11	426.6
15	13	12	426.6
15	14	13	426.6
15	15	14	426.6
15	16	15	426.6
15	17	16	426.6
15	18	17	426.6
15	19	18	426.6
15	20	19	426.6
15	21	20	426.6
15	22	21	426.6
15	23	22	426.6
15	24	23	426.6
15	25	24	426.6
15	26	25	426.6
15	27	26	426.6
15	28	27	426.6
15	29	28	426.6
15	30	29	426.6
15	31	30	426.6
15	32	31	426.6
[...]
269	58	57	5.5689786433584
269	59	58	7.6242857884562
269	60	59	9.6699247667768
269	61	60	11.579180001965
269	62	61	13.348413854206
269	63	62	13.84426540347
269	64	63	13.851194196229
269	65	64	13.828545279272
269	66	65	13.829819312068
269	67	66	13.814834513997
269	68	67	13.786250816428
269	69	68	13.77010062244
269	70	69	13.775956162682
269	71	70	13.780885077238
269	72	71	13.793368056442
269	73	72	13.810697260008
269	74	73	13.841773261188
270	58	57	816.45102702942
270	59	58	814.29486496139
270	60	59	810.30715866069
270	61	60	804.33235113735
270	62	61	796.30500541524
270	63	62	786.28943831064
270	64	63	774.47483443018
270	65	64	760.91508971513
270	66	65	747.07588574263
270	67	66	733.25490595877
270	68	67	719.43719218451
270	69	68	705.59468351702
270	70	69	691.77470289561
270	71	70	677.94979009987
270	72	71	664.16468371442
270	73	72	651.49615630746
270	74	73	639.85989389161
271	58	57	823.4
271	59	58	823.4
271	60	59	823.4
271	61	60	823.4
271	62	61	823.4
271	63	62	823.4
271	64	63	823.4
271	65	64	823.4
271	66	65	823.4
271	67	66	823.4
271	68	67	823.4
271	69	68	823.4
271	70	69	823.4
271	71	70	823.4
271	72	71	823.4
271	73	72	823.4
271	74	73	823.4
272	58	57	1.6245266516856
272	59	58	2.0553071450978
272	60	59	2.0456389783206
272	61	60	1.9092552351882
272	62	61	1.7692338522407
272	63	62	0.49585154926478
272	64	63	0.0069287927588455
272	65	64	-0.022648916956969
272	66	65	0.0012740327953367
272	67	66	-0.014984798070509
272	68	67	-0.028583697569557
272	69	68	-0.016150193987414
272	70	69	0.005855540242047
272	71	70	0.0049289145553484
272	72	71	0.012482979204504
272	73	72	0.017329203565605
272	74	73	0.031076001180336
273	58	57	3.5749185922572
273	59	58	5.2952676766779
273	60	59	6.4272702538796
273	61	60	7.1399324703135
273	62	61	7.665211708369
273	63	62	3.6773622560529
273	64	63	2.0468011790099
273	65	64	1.9458954713477
273	66	65	2.0257523694534
273	67	66	1.9700997274827
273	68	67	1.9221332092122
273	69	68	1.9618774511492
273	70	69	2.0355041250283
273	71	70	2.0329306732921
273	72	71	2.0593165117937
273	73	72	2.0772495410263
273	74	73	2.1263822934853
274	58	57	3.1401399490723
274	59	58	5.118772841226
274	60	59	7.0394801032144
274	61	60	8.9351074661172
274	62	61	10.734468510598
274	63	62	12.705982377168
274	64	63	13.763730613708
274	65	64	13.804077127252
274	66	65	13.836658440526
274	67	66	13.816822913249
274	68	67	13.761197214045
274	69	68	13.798017097148
274	70	69	13.018185548453
274	71	70	12.667564935646
274	72	71	12.855768742397
274	73	72	13.603538882708
274	74	73	13.770349654879
275	59	58	811.65228492838
275	60	59	808.61951698002
275	61	60	803.67183981451
275	62	61	796.63352730435
275	63	62	787.61161007787
275	64	63	776.4902693765
275	65	64	763.33758126841
275	66	65	749.49628168297
275	67	66	735.68613366009
275	68	67	721.86114715907
275	69	68	708.05328481887
275	70	69	694.22115297881
275	71	70	680.40853480952
275	72	71	666.5749994839
275	73	72	654.35178057646
275	74	73	645.36720131415
276	59	58	423.4
276	60	59	423.4
276	61	60	423.4
276	62	61	423.4
276	63	62	423.4
276	64	63	423.4
276	65	64	423.4
276	66	65	423.4
276	67	66	423.4
276	68	67	423.4
276	69	68	423.4
276	70	69	423.4
276	71	70	423.4
276	72	71	423.4
276	73	72	423.4
276	74	73	423.4
277	59	58	1.9786328921537
277	60	59	1.9207072619884
277	61	60	1.8956273629027
277	62	61	1.7993610444805
277	63	62	1.9715138665703
277	64	63	1.0577482365401
277	65	64	0.040346513544209
277	66	65	0.032581313273404
277	67	66	-0.019835527276156
277	68	67	-0.055625699204391
277	69	68	0.036819883103016
277	70	69	-0.77983154869549
277	71	70	-0.35062061280699
277	72	71	0.18820380675172
277	73	72	0.74777014031104
277	74	73	0.16681077217056
278	59	58	3.8102090990918
278	60	59	4.7403177469697
278	61	60	5.6888973967252
278	62	61	6.3970555099215
278	63	62	7.9494863789329
278	64	63	5.5234449073537
278	65	64	2.153126353072
278	66	65	2.1308454280113
278	67	66	1.9541414298942
278	68	67	1.8300965565867
278	69	68	2.1407280260242
278	70	69	0.973
278	71	70	0.973
278	72	71	2.5095387376275
278	73	72	4.4503203343002
278	74	73	2.5690857729479
279	59	58	3.0587708754673
279	60	59	4.8663580594466
279	61	60	6.9051126056745
279	62	61	8.9497093199308
279	63	62	10.881547122386
279	64	63	12.651102407658
279	65	64	13.87532538305
279	66	65	13.860465408873
279	67	66	13.873462116304
279	68	67	13.840212028299
279	69	68	13.889430486427
279	70	69	13.800555007951
279	71	70	13.791050889893
279	72	71	13.555375773183
279	73	72	12.017251399727
279	74	73	10.747195521719
280	60	59	211.63205078408
280	61	60	208.54487200152
280	62	61	203.6008500912
280	63	62	196.66332455207
280	64	63	187.78704142643
280	65	64	176.92936160168
280	66	65	164.01846623397
280	67	66	150.20620550085
280	68	67	136.37203044828
280	69	68	122.54124407683
280	70	69	108.72375118032
280	71	70	94.884263397308
280	72	71	81.062473759005
280	73	72	67.224953494632
280	74	73	54.872977676118
281	60	59	223.4
281	61	60	223.4
281	62	61	223.4
281	63	62	223.4
281	64	63	223.4
281	65	64	223.4
281	66	65	223.4
281	67	66	223.4
281	68	67	223.4
281	69	68	223.4
281	70	69	223.4
281	71	70	223.4
281	72	71	223.4
281	73	72	223.4
281	74	73	223.4
282	60	59	1.8075871839793
282	61	60	2.0387545462279
282	62	61	2.0445967142563
282	63	62	1.9318378024548
282	64	63	1.7695552852727
282	65	64	1.2242229753921
282	66	65	-0.014859974177089
282	67	66	0.012996707430574
282	68	67	-0.033250088004861
282	69	68	0.049218458128163
282	70	69	-0.088875478475821
282	71	70	-0.00950411805883
282	72	71	-0.2356751167098
282	73	72	-1.5381243734559
282	74	73	-1.2700558780082
283	60	59	3.4753233909469
283	61	60	4.8662743955388
283	62	61	6.0179051999013
283	63	62	6.820106162531
283	64	63	7.3025640768771
283	65	64	6.1198659014612
283	66	65	1.9749745955508
283	67	66	2.0693865610131
283	68	67	1.9116533002945
283	69	68	2.1923066226284
283	70	69	1.7229524608113
283	71	70	1.9859983358469
283	72	71	1.224092221673
283	73	72	0.973
283	74	73	0.973
284	60	59	3.7818972324052
284	61	60	5.9806324185625
284	62	61	7.8647239502458
284	63	62	9.9887363356127
284	64	63	12.045413035691
284	65	64	13.770143075709
284	66	65	13.858079863831
284	67	66	13.77851014972
284	68	67	13.839205173629
284	69	68	13.768193445294
284	70	69	13.820376553992
284	71	70	13.878165867571
284	72	71	13.889054601928
284	73	72	10.756067189225
284	74	73	7.6347976140512
285	61	60	411.6379841284
285	62	61	408.5283930349
285	63	62	403.37243302794
285	64	63	396.32001270424
285	65	64	387.51456761467
285	66	65	376.68001560091
285	67	66	363.81222029939
285	68	67	349.9995214361
285	69	68	336.19476914882
285	70	69	322.35155800239
285	71	70	308.52635856976
285	72	71	294.6901862746
285	73	72	280.87833711418
285	74	73	268.49577209709
286	61	60	623.4
286	62	61	623.4
286	63	62	623.4
286	64	63	623.4
286	65	64	623.4
286	66	65	623.4
286	67	66	623.4
286	68	67	623.4
286	69	68	623.4
286	70	69	623.4
286	71	70	623.4
286	72	71	623.4
286	73	72	623.4
286	74	73	623.4
287	61	60	26.6
287	62	61	26.6
287	63	62	26.6
287	64	63	26.6
287	65	64	26.6
287	66	65	26.6
287	67	66	26.6
287	68	67	26.6
287	69	68	26.6
287	70	69	26.6
287	71	70	26.6
287	72	71	26.6
287	73	72	26.6
287	74	73	26.6
288	61	60	211.62864114944
288	62	61	208.35142472913
288	63	62	203.11456787837
288	64	63	195.73831489329
288	65	64	186.42401973405
288	66	65	175.02821241163
288	67	66	161.77539597954
288	68	67	147.9567031312
288	69	68	134.14702311008
288	70	69	120.328907827
288	71	70	106.51986087301
288	72	71	92.685721429542
288	73	72	78.858826741714
288	74	73	65.035750218454
289	61	60	2.1987351861573
289	62	61	1.8840915316832
289	63	62	2.1240123853669
289	64	63	2.056676700078
289	65	64	1.7247300400181
289	66	65	0.087936788122169
289	67	66	-0.079569714111276
289	68	67	0.060695023909211
289	69	68	-0.071011728334707
289	70	69	0.052183108697646
289	71	70	0.057789313578978
289	72	71	0.010888734357431
289	73	72	-3.1329874127034
289	74	73	-3.1212695751736
290	61	60	4.5873752313515
290	62	61	5.1054374666589
290	63	62	6.7970278404238
290	64	63	7.822939025798
290	65	64	7.7391745106442
290	66	65	2.3180614159161
290	67	66	1.752100394267
290	68	67	2.2248896404961
290	69	68	1.779654708361
290	70	69	2.1943571744532
290	71	70	2.2196942438947
290	72	71	2.0639643015965
290	73	72	0.973
290	74	73	0.973
291	61	60	3.9426925666947
291	62	61	5.8216355030951
291	63	62	7.8264516067123
291	64	63	9.7079901512913
291	65	64	11.828019863895
291	66	65	13.736943535266
291	67	66	13.77129043675
291	68	67	13.884354338381
291	69	68	13.865793506647
291	70	69	13.794541408299
291	71	70	13.859227067297
291	72	71	13.812582780714
291	73	72	13.870829104374
291	74	73	10.921075126261
292	62	61	238.37225903636
292	63	62	241.39630551814
292	64	63	246.40365270018
292	65	64	253.52716455711
292	66	65	262.59419831326
292	67	66	273.64785312882
292	68	67	286.69346967125
292	69	68	300.52001418774
292	70	69	314.34344007978
292	71	70	328.18070226687
292	72	71	342.0105563248
292	73	72	355.82718691365
292	74	73	369.65303034202
293	62	61	226.6
293	63	62	226.6
293	64	63	226.6
293	65	64	226.6
293	66	65	226.6
293	67	66	226.6
293	68	67	226.6
293	69	68	226.6
293	70	69	226.6
293	71	70	226.6
293	72	71	226.6
293	73	72	226.6
293	74	73	226.6
294	62	61	1.8789429364004
294	63	62	2.0048161036172
294	64	63	1.8815385445789
294	65	64	2.1200297126034
294	66	65	1.9089236713713
294	67	66	0.034346901484298
294	68	67	0.11306390163023
294	69	68	-0.018560831733049
294	70	69	-0.071252098348923
294	71	70	0.064685658998789
294	72	71	-0.046644286583179
294	73	72	0.058246323659551
294	74	73	-2.9497539781129
295	62	61	4.0452459217248
295	63	62	5.3132678102217
295	64	63	6.064929471665
295	65	64	7.8767055546008
295	66	65	8.3318248811151
295	67	66	2.129586596767
295	68	67	2.4053653601713
295	69	68	1.9631293325064
295	70	69	1.7810625512939
295	71	70	2.2405416467711
295	72	71	1.8644910249336
295	73	72	2.2203744519305
295	74	73	0.973
296	62	61	4.0287312177962
296	63	62	6.0002947659019
296	64	63	7.7971756497721
296	65	64	9.645472516033
296	66	65	11.802868311035
296	67	66	13.589275183531
296	68	67	13.790474929723
296	69	68	13.79299874742
296	70	69	13.86621734886
296	71	70	13.880602470615
296	72	71	13.88604097649
296	73	72	13.801074419566
296	74	73	11.163397349656
297	62	61	4.0866278337733
297	63	62	6.2008296319957
297	64	63	8.3111635909461
297	65	64	10.207605620413
297	66	65	12.259542290866
297	67	66	13.82259390224
297	68	67	13.814735703771
297	69	68	13.82060152868
297	70	69	13.794499367794
297	71	70	13.871030936767
297	72	71	13.876610480247
297	73	72	13.851641415011
297	74	73	13.87242965386
298	63	62	26.6
298	64	63	26.6
298	65	64	26.6
298	66	65	26.6
298	67	66	26.6
298	68	67	26.6
298	69	68	26.6
298	70	69	26.6
298	71	70	26.6
298	72	71	26.6
298	73	72	26.6
298	74	73	26.6
299	63	62	411.66528497729
299	64	63	408.61511859175
299	65	64	403.71533053052
299	66	65	396.98450021926
299	67	66	388.2490480702
299	68	67	377.52247763651
299	69	68	364.92302151353
299	70	69	351.11336491609
299	71	70	337.27787464894
299	72	71	323.45422951888
299	73	72	309.62295466226
299	74	73	295.81215587821
300	63	62	1.9715635481058
300	64	63	1.7968808838702
300	65	64	1.8482968662609
300	66	65	2.1573957950016
300	67	66	1.786406872496
300	68	67	0.20119974619273
300	69	68	0.0025238176970745
300	70	69	0.073218601439148
300	71	70	0.014385121755767
300	72	71	0.0054385058744817
300	73	72	-0.084966556923463
300	74	73	-2.63767706991
301	63	62	4.2704319462276
301	64	63	4.9064803369524
301	65	64	5.9546703210942
301	66	65	7.9679560236597
301	67	66	7.8478822045995
301	68	67	2.6862167456432
301	69	68	2.0261727379641
301	70	69	2.2698751567552
301	71	70	2.0747790072444
301	72	71	2.0454105535427
301	73	72	1.7359951121033
301	74	73	0.973
302	63	62	2.1142017982225
302	64	63	2.1103339589504
302	65	64	1.8964420294669
302	66	65	2.0519366704533
302	67	66	1.5630516113738
302	68	67	-0.0078581984690391
302	69	68	0.0058658249094155
302	70	69	-0.02610216088593
302	71	70	0.076531568972859
302	72	71	0.0055795434792536
302	73	72	-0.024969065235929
302	74	73	0.020788238849491
303	63	62	4.5906163777056
303	64	63	5.7909437099383
303	65	64	6.3659774491028
303	66	65	7.9341632498381
303	67	66	7.2276827589363
303	68	67	1.993817045218
303	69	68	2.0401107792454
303	70	69	1.9311588370145
303	71	70	2.2815238676201
303	72	71	2.0449113274769
303	73	72	1.940364395617
303	74	73	2.0953275329742
304	63	62	3.8698061050244
304	64	63	6.0549033278229
304	65	64	8.0250198178694
304	66	65	9.9549766200806
304	67	66	11.942751661802
304	68	67	13.768068513011
304	69	68	13.771569657719
304	70	69	13.797536733109
304	71	70	13.823593416773
304	72	71	13.858812800422
304	73	72	13.813206908898
304	74	73	13.821811281117
305	64	63	2.1850972227985
305	65	64	1.9701164900465
305	66	65	1.9299568022112
305	67	66	1.9877750417218
305	68	67	1.8253168512087
305	69	68	0.0035011447081352
305	70	69	0.025967075389344
305	71	70	0.02605668366421
305	72	71	0.035219383649528
305	73	72	-0.045605891523882
305	74	73	0.0086043722182509
306	64	63	4.6111583077941
306	65	64	5.3551340561787
306	66	65	6.3116194360989
306	67	66	7.5646956662481
306	68	67	8.071860671779
306	69	68	2.0272415817794
306	70	69	2.1045874211161
306	71	70	2.1076833126707
306	72	71	2.1420765627242
306	73	72	1.8680039180054
306	74	73	2.0493571483277
307	64	63	3.8743775155046
307	65	64	5.7463213674747
307	66	65	7.5331022225507
307	67	66	9.6760539741418
307	68	67	11.648749477491
307	69	68	13.375749781355
307	70	69	13.82643399576
307	71	70	13.851425913929
307	72	71	13.859822108282
307	73	72	13.818526652588
307	74	73	13.76679460831
308	65	64	438.36396377408
308	66	65	441.46449916279
308	67	66	446.50578700371
308	68	67	453.55817827226
308	69	68	462.62488536437
308	70	69	473.64988491644
308	71	70	486.68976057764
308	72	71	500.50823568357
308	73	72	514.36626492003
308	74	73	528.18483634873
309	65	64	226.6
309	66	65	226.6
309	67	66	226.6
309	68	67	226.6
309	69	68	226.6
309	70	69	226.6
309	71	70	226.6
309	72	71	226.6
309	73	72	226.6
309	74	73	226.6
310	65	64	1.8719438519701
310	66	65	1.7867808550759
310	67	66	2.1429517515912
310	68	67	1.9726955033489
310	69	68	1.7270003038645
310	70	69	0.45068421440432
310	71	70	0.024991918168961
310	72	71	0.0083961943537005
310	73	72	-0.041295455694199
310	74	73	-0.051732044278179
311	65	64	3.9971175690062
311	66	65	4.7567481827244
311	67	66	6.6576730337778
311	68	67	7.3559990982389
311	69	68	7.5433964582118
311	70	69	3.5229200147517
311	71	70	2.1071232751455
311	72	71	2.0525922703705
311	73	72	1.8828383771926
311	74	73	1.8435037752059
312	66	65	423.4
312	67	66	423.4
312	68	67	423.4
312	69	68	423.4
312	70	69	423.4
312	71	70	423.4
312	72	71	423.4
312	73	72	423.4
312	74	73	423.4
313	66	65	238.36663486583
313	67	66	241.55580773564
313	68	67	246.78064321897
313	69	68	254.01573186051
313	70	69	263.38560325139
313	71	70	274.83246083649
313	72	71	288.06860669016
313	73	72	301.88868537384
313	74	73	315.71465359616
314	66	65	626.6
314	67	66	626.6
314	68	67	626.6
314	69	68	626.6
314	70	69	626.6
314	71	70	626.6
314	72	71	626.6
314	73	72	626.6
314	74	73	626.6
315	66	65	811.63797165498
315	67	66	808.47986534357
315	68	67	803.38426060678
315	69	68	796.30473606295
315	70	69	787.38457082246
315	71	70	776.68944013455
315	72	71	763.99352994605
315	73	72	750.18946778054
315	74	73	736.37035746412
316	66	65	3.9760455293873
316	67	66	5.904704715988
316	68	67	7.9057733104297
316	69	68	9.9139943282691
316	70	69	11.891672087986
316	71	70	13.779970999931
316	72	71	13.813929440477
316	73	72	13.883157313813
316	74	73	13.767794465718
317	67	66	826.6
317	68	67	826.6
317	69	68	826.6
317	70	69	826.6
317	71	70	826.6
317	72	71	826.6
317	73	72	826.6
317	74	73	826.6
318	67	66	611.60726673913
318	68	67	608.30861357794
318	69	68	602.94926838156
318	70	69	595.67524785153
318	71	70	586.57287978529
318	72	71	575.56546640176
318	73	72	562.54127402974
318	74	73	548.72485674016
319	67	66	1.9286591866007
319	68	67	2.0010685944417
319	69	68	2.0082210178394
319	70	69	1.9776777597167
319	71	70	1.8882989119447
319	72	71	0.033958440546414
319	73	72	0.069227873336057
319	74	73	-0.11536284809466
320	67	66	4.1584083423982
320	68	67	5.3496395432376
320	69	68	6.4764543942327
320	70	69	7.5068135545045
320	71	70	8.2874583170877
320	72	71	2.1329511929701
320	73	72	2.2585426761467
320	74	73	1.6324626085266
321	67	66	4.1263324542361
321	68	67	6.1820818932418
321	69	68	8.1924804296897
321	70	69	10.270849868468
321	71	70	12.285771943
321	72	71	13.802029996489
321	73	72	13.813078906171
321	74	73	13.788838330705
322	67	66	4.0842017949011
322	68	67	5.9608527077908
322	69	68	7.9112396666488
322	70	69	9.6781314597988
322	71	70	11.584009851505
322	72	71	13.597846581853
322	73	72	13.776379634959
322	74	73	13.883631857834
323	68	67	411.63766389812
323	69	68	408.46433074149
323	70	69	403.26004208735
323	71	70	396.13104258248
323	72	71	387.04409905576
323	73	72	375.93733836417
323	74	73	362.76301419681
324	68	67	823.4
324	69	68	823.4
324	70	69	823.4
324	71	70	823.4
324	72	71	823.4
324	73	72	823.4
324	74	73	823.4
325	68	67	2.0557494390057
325	69	68	2.0103985364479
325	70	69	2.0783694387786
325	71	70	2.0149220745312
325	72	71	1.5162580534892
325	73	72	0.011048909681849
325	74	73	-0.024240575465374
326	68	67	4.4928733149293
326	69	68	5.5253063284403
326	70	69	6.8500915968292
326	71	70	7.8398989984485
326	72	71	7.0622082616049
326	73	72	2.0565934961565
326	74	73	1.9368091961958
327	68	67	1.8766509128897
327	69	68	1.950386958858
327	70	69	1.76689179315
327	71	70	1.9058783917059
327	72	71	2.0138367303484
327	73	72	0.17853305310604
327	74	73	0.10725222287467
328	68	67	4.1130493079237
328	69	68	5.2560041317136
328	70	69	5.7817666793068
328	71	70	7.1331400741194
328	72	71	8.5977309010216
328	73	72	2.6088553279424
328	74	73	2.3858266074806
329	68	67	4.2432959168753
329	69	68	6.205070938596
329	70	69	8.0533424157998
329	71	70	9.8782925729406
329	72	71	11.919276719987
329	73	72	13.780632045097
329	74	73	13.87033578488
330	69	68	411.59644423507
330	70	69	408.37209793951
330	71	70	403.15823569791
330	72	71	395.88737911536
330	73	72	386.66707885848
330	74	73	375.61540260166
331	69	68	423.4
331	70	69	423.4
331	71	70	423.4
331	72	71	423.4
331	73	72	423.4
331	74	73	423.4
332	69	68	1.9617750217207
332	70	69	1.8482714772038
332	71	70	1.8249501571408
332	72	71	2.0409841470467
332	73	72	1.8613553251094
332	74	73	0.089703739783728
333	69	68	4.3650848766243
333	70	69	5.1339715711605
333	71	70	6.0201770114181
333	72	71	7.7042369711665
333	73	72	8.1983426062793
333	74	73	2.3254717327298
334	69	68	4.1395823418634
334	70	69	6.0820445549726
334	71	70	8.0825227393704
334	72	71	9.9781404585001
334	73	72	12.081789762858
334	74	73	13.775032342838
335	70	69	34.347380757295
335	71	70	37.510703024779
335	72	71	42.553720428386
335	73	72	49.549765871744
335	74	73	58.360454107122
336	70	69	26.6
336	71	70	26.6
336	72	71	26.6
336	73	72	26.6
336	74	73	26.6
337	70	69	1.9424622131092
337	71	70	2.0004781843978
337	72	71	1.8956177191297
337	73	72	2.1036493043578
337	74	73	1.6932425799797
338	70	69	4.2713896193485
338	71	70	5.445385128631
338	72	71	6.2415721965937
338	73	72	7.9809620996355
338	74	73	7.6371681344082
339	70	69	4.1921787767177
339	71	70	6.132844721565
339	72	71	8.1572735964129
339	73	72	10.032527110925
339	74	73	11.879355389692
340	71	70	226.6
340	72	71	226.6
340	73	72	226.6
340	74	73	226.6
341	71	70	211.61121966353
341	72	71	208.33209399139
341	73	72	203.12197007712
341	74	73	195.90123055804
342	71	70	1.9406659448473
342	72	71	2.0244288748479
342	73	72	1.8752535145124
342	74	73	1.8468282787665
343	71	70	4.2954917080117
343	72	71	5.533480255927
343	73	72	6.221313514108
343	74	73	7.1252546070695
344	71	70	3.9737090226986
344	72	71	5.9273385456997
344	73	72	7.7809267677321
344	74	73	9.6332287827322
345	72	71	1.9536295230011
345	73	72	1.8535882220324
345	74	73	1.852302015
346	72	71	4.2059099375507
346	73	72	5.0047245270183
346	74	73	5.9576089412295
347	72	71	4.1371704788945
347	73	72	6.0717435011474
347	74	73	8.0638220818663
348	73	72	226.6
348	74	73	226.6
349	73	72	212.54889492051
349	74	73	210.59177534978
350	73	72	438.36337573348
350	74	73	441.53822686756
351	73	72	426.6
351	74	73	426.6
352	73	72	1.9345730222529
352	74	73	1.992078580719
353	73	72	4.2544208298023
353	74	73	5.4188057213573
354	74	73	411.63434975442
355	74	73	423.4
356	74	73	2.8293971504486
357	74	73	4.139936522817

