version 2
run Default-0-20210421-12:13:58-1664
attr configname Default
attr datetime 20210421-12:13:58
attr experiment Default
attr inifile omnetpp.ini
attr iterationvars ""
attr iterationvarsf ""
attr measurement ""
attr network Sim2Scenario
attr processid 1664
attr repetition 0
attr replication #0
attr resultdir results
attr runnumber 0
attr seedset 0
param *.playgroundSizeX 1000m
param *.playgroundSizeY 1000m
param *.playgroundSizeZ 50m
param *.annotations.draw true
param *.manager.moduleType "\"exploited=org.car2x.veins.nodes.Car *=org.car2x.veins.nodes.Car\""
param *.manager.moduleName "\"exploited=exploited *=uninfected\""
param *.manager.updateInterval 1s
param *.manager.host "\"localhost\""
param *.manager.port 9999
param *.manager.autoShutdown true
param *.manager.launchConfig "xmldoc(\"sim2.launchd.xml\")"
param *.connectionManager.sendDirect true
param *.connectionManager.maxInterfDist 300m
param *.connectionManager.drawMaxIntfDist false
param *.**.nic.mac1609_4.useServiceChannel false
param *.**.nic.mac1609_4.txPower 20mW
param *.**.nic.mac1609_4.bitrate 6Mbps
param *.**.nic.phy80211p.minPowerLevel -110dBm
param *.**.nic.phy80211p.useNoiseFloor true
param *.**.nic.phy80211p.noiseFloor -98dBm
param *.**.nic.phy80211p.decider "xmldoc(\"config.xml\")"
param *.**.nic.phy80211p.analogueModels "xmldoc(\"config.xml\")"
param *.**.nic.phy80211p.usePropagationDelay true
param *.**.nic.phy80211p.antenna "xmldoc(\"antenna.xml\", \"/root/Antenna[@id='monopole']\")"
param *.uninfected[*].nic.phy80211p.antennaOffsetY "0 m"
param *.uninfected[*].nic.phy80211p.antennaOffsetZ "1.895 m"
param *.exploited[*].nic.phy80211p.antennaOffsetY "0 m"
param *.exploited[*].nic.phy80211p.antennaOffsetZ "1.895 m"
param *.uninfected[*].applType "\"UninfectedDemo11p\""
param *.uninfected[*].appl.headerLength "80 bit"
param *.uninfected[*].appl.sendBeacons false
param *.uninfected[*].appl.dataOnSch false
param *.uninfected[*].appl.beaconInterval 1s
param *.exploited[*].applType "\"ExploitedDemo11p\""
param *.exploited[*].appl.headerLength "80 bit"
param *.exploited[*].appl.sendBeacons false
param *.exploited[*].appl.dataOnSch false
param *.exploited[*].appl.beaconInterval 1s
param *.uninfected[*].veinsmobility.x 0
param *.uninfected[*].veinsmobility.y 0
param *.uninfected[*].veinsmobility.z 0
param *.uninfected[*].veinsmobility.setHostSpeed false
param *.uninfected[*0].veinsmobility.accidentCount 1
param *.uninfected[*0].veinsmobility.accidentStart 73s
param *.uninfected[*0].veinsmobility.accidentDuration 50s
param *.exploited[*].veinsmobility.x 0
param *.exploited[*].veinsmobility.y 0
param *.exploited[*].veinsmobility.z 0
param *.exploited[*].veinsmobility.setHostSpeed false
param *.exploited[*0].veinsmobility.accidentCount 1
param *.exploited[*0].veinsmobility.accidentStart 73s
param *.exploited[*0].veinsmobility.accidentDuration 50s

scalar Sim2Scenario.uninfected[23].appl generatedWSMs 0
scalar Sim2Scenario.uninfected[23].appl receivedWSMs 0
scalar Sim2Scenario.uninfected[23].appl generatedBSMs 0
scalar Sim2Scenario.uninfected[23].appl receivedBSMs 0
scalar Sim2Scenario.uninfected[23].appl generatedWSAs 0
scalar Sim2Scenario.uninfected[23].appl receivedWSAs 0
scalar Sim2Scenario.uninfected[23].nic.phy80211p busyTime 0
scalar Sim2Scenario.uninfected[23].nic.mac1609_4 ReceivedUnicastPackets 0
scalar Sim2Scenario.uninfected[23].nic.mac1609_4 ReceivedBroadcasts 0
scalar Sim2Scenario.uninfected[23].nic.mac1609_4 SentPackets 0
scalar Sim2Scenario.uninfected[23].nic.mac1609_4 SentAcknowledgements 0
scalar Sim2Scenario.uninfected[23].nic.mac1609_4 RetriesExceeded 0
scalar Sim2Scenario.uninfected[23].nic.mac1609_4 SNIRLostPackets 0
scalar Sim2Scenario.uninfected[23].nic.mac1609_4 RXTXLostPackets 0
scalar Sim2Scenario.uninfected[23].nic.mac1609_4 TotalLostPackets 0
scalar Sim2Scenario.uninfected[23].nic.mac1609_4 DroppedPacketsInMac 0
scalar Sim2Scenario.uninfected[23].nic.mac1609_4 TooLittleTime 0
scalar Sim2Scenario.uninfected[23].nic.mac1609_4 TimesIntoBackoff 0
scalar Sim2Scenario.uninfected[23].nic.mac1609_4 SlotsBackoff 0
scalar Sim2Scenario.uninfected[23].nic.mac1609_4 NumInternalContention 0
scalar Sim2Scenario.uninfected[23].nic.mac1609_4 totalBusyTime 0
scalar Sim2Scenario.uninfected[23].nic.mac1609_4 retriesExceeded:count 0
attr source org_car2x_veins_modules_mac_sigRetriesExceeded
scalar Sim2Scenario.uninfected[23].nic.mac1609_4 sentAcks:count 0
attr source org_car2x_veins_modules_mac_sigSentAck
scalar Sim2Scenario.uninfected[23].nic.mac1609_4 sentPackets:count 0
attr source org_car2x_veins_modules_mac_sigSentPacket
scalar Sim2Scenario.uninfected[23].nic.mac1609_4 collisions:count 0
attr source org_car2x_veins_modules_mac_sigCollision
scalar Sim2Scenario.uninfected[23].nic.mac1609_4 channelBusy:timeavg 0
attr source org_car2x_veins_modules_mac_sigChannelBusy
scalar Sim2Scenario.uninfected[23].veinsmobility startTime 24
scalar Sim2Scenario.uninfected[23].veinsmobility totalTime 15
scalar Sim2Scenario.uninfected[23].veinsmobility stopTime 40
scalar Sim2Scenario.uninfected[23].veinsmobility minSpeed 4.0277950379694
scalar Sim2Scenario.uninfected[23].veinsmobility maxSpeed 13.878134806112
scalar Sim2Scenario.uninfected[23].veinsmobility totalDistance 172.90740923549
scalar Sim2Scenario.uninfected[23].veinsmobility totalCO2Emission 50.054110153398
scalar Sim2Scenario.uninfected[3].appl generatedWSMs 0
scalar Sim2Scenario.uninfected[3].appl receivedWSMs 0
scalar Sim2Scenario.uninfected[3].appl generatedBSMs 0
scalar Sim2Scenario.uninfected[3].appl receivedBSMs 0
scalar Sim2Scenario.uninfected[3].appl generatedWSAs 0
scalar Sim2Scenario.uninfected[3].appl receivedWSAs 0
scalar Sim2Scenario.uninfected[3].nic.phy80211p busyTime 0
scalar Sim2Scenario.uninfected[3].nic.mac1609_4 ReceivedUnicastPackets 0
scalar Sim2Scenario.uninfected[3].nic.mac1609_4 ReceivedBroadcasts 0
scalar Sim2Scenario.uninfected[3].nic.mac1609_4 SentPackets 0
scalar Sim2Scenario.uninfected[3].nic.mac1609_4 SentAcknowledgements 0
scalar Sim2Scenario.uninfected[3].nic.mac1609_4 RetriesExceeded 0
scalar Sim2Scenario.uninfected[3].nic.mac1609_4 SNIRLostPackets 0
scalar Sim2Scenario.uninfected[3].nic.mac1609_4 RXTXLostPackets 0
scalar Sim2Scenario.uninfected[3].nic.mac1609_4 TotalLostPackets 0
scalar Sim2Scenario.uninfected[3].nic.mac1609_4 DroppedPacketsInMac 0
scalar Sim2Scenario.uninfected[3].nic.mac1609_4 TooLittleTime 0
scalar Sim2Scenario.uninfected[3].nic.mac1609_4 TimesIntoBackoff 0
scalar Sim2Scenario.uninfected[3].nic.mac1609_4 SlotsBackoff 0
scalar Sim2Scenario.uninfected[3].nic.mac1609_4 NumInternalContention 0
scalar Sim2Scenario.uninfected[3].nic.mac1609_4 totalBusyTime 0
scalar Sim2Scenario.uninfected[3].nic.mac1609_4 retriesExceeded:count 0
attr source org_car2x_veins_modules_mac_sigRetriesExceeded
scalar Sim2Scenario.uninfected[3].nic.mac1609_4 sentAcks:count 0
attr source org_car2x_veins_modules_mac_sigSentAck
scalar Sim2Scenario.uninfected[3].nic.mac1609_4 sentPackets:count 0
attr source org_car2x_veins_modules_mac_sigSentPacket
scalar Sim2Scenario.uninfected[3].nic.mac1609_4 collisions:count 0
attr source org_car2x_veins_modules_mac_sigCollision
scalar Sim2Scenario.uninfected[3].nic.mac1609_4 channelBusy:timeavg 0
attr source org_car2x_veins_modules_mac_sigChannelBusy
scalar Sim2Scenario.uninfected[3].veinsmobility startTime 4
scalar Sim2Scenario.uninfected[3].veinsmobility totalTime 47
scalar Sim2Scenario.uninfected[3].veinsmobility stopTime 52
scalar Sim2Scenario.uninfected[3].veinsmobility minSpeed 4.1837425248161
scalar Sim2Scenario.uninfected[3].veinsmobility maxSpeed 13.888416356484
scalar Sim2Scenario.uninfected[3].veinsmobility totalDistance 570.1588398652
scalar Sim2Scenario.uninfected[3].veinsmobility totalCO2Emission 131.15079257426
scalar Sim2Scenario.uninfected[9].appl generatedWSMs 0
scalar Sim2Scenario.uninfected[9].appl receivedWSMs 0
scalar Sim2Scenario.uninfected[9].appl generatedBSMs 0
scalar Sim2Scenario.uninfected[9].appl receivedBSMs 0
scalar Sim2Scenario.uninfected[9].appl generatedWSAs 0
scalar Sim2Scenario.uninfected[9].appl receivedWSAs 0
scalar Sim2Scenario.uninfected[9].nic.phy80211p busyTime 0
scalar Sim2Scenario.uninfected[9].nic.mac1609_4 ReceivedUnicastPackets 0
scalar Sim2Scenario.uninfected[9].nic.mac1609_4 ReceivedBroadcasts 0
scalar Sim2Scenario.uninfected[9].nic.mac1609_4 SentPackets 0
scalar Sim2Scenario.uninfected[9].nic.mac1609_4 SentAcknowledgements 0
scalar Sim2Scenario.uninfected[9].nic.mac1609_4 RetriesExceeded 0
scalar Sim2Scenario.uninfected[9].nic.mac1609_4 SNIRLostPackets 0
scalar Sim2Scenario.uninfected[9].nic.mac1609_4 RXTXLostPackets 0
scalar Sim2Scenario.uninfected[9].nic.mac1609_4 TotalLostPackets 0
scalar Sim2Scenario.uninfected[9].nic.mac1609_4 DroppedPacketsInMac 0
scalar Sim2Scenario.uninfected[9].nic.mac1609_4 TooLittleTime 0
scalar Sim2Scenario.uninfected[9].nic.mac1609_4 TimesIntoBackoff 0
scalar Sim2Scenario.uninfected[9].nic.mac1609_4 SlotsBackoff 0
scalar Sim2Scenario.uninfected[9].nic.mac1609_4 NumInternalContention 0
scalar Sim2Scenario.uninfected[9].nic.mac1609_4 totalBusyTime 0
scalar Sim2Scenario.uninfected[9].nic.mac1609_4 retriesExceeded:count 0
attr source org_car2x_veins_modules_mac_sigRetriesExceeded
scalar Sim2Scenario.uninfected[9].nic.mac1609_4 sentAcks:count 0
attr source org_car2x_veins_modules_mac_sigSentAck
scalar Sim2Scenario.uninfected[9].nic.mac1609_4 sentPackets:count 0
attr source org_car2x_veins_modules_mac_sigSentPacket
scalar Sim2Scenario.uninfected[9].nic.mac1609_4 collisions:count 0
attr source org_car2x_veins_modules_mac_sigCollision
scalar Sim2Scenario.uninfected[9].nic.mac1609_4 channelBusy:timeavg 0
attr source org_car2x_veins_modules_mac_sigChannelBusy
scalar Sim2Scenario.uninfected[9].veinsmobility startTime 10
scalar Sim2Scenario.uninfected[9].veinsmobility totalTime 51
scalar Sim2Scenario.uninfected[9].veinsmobility stopTime 62
scalar Sim2Scenario.uninfected[9].veinsmobility minSpeed 3.5621496864848
scalar Sim2Scenario.uninfected[9].veinsmobility maxSpeed 13.887274319187
scalar Sim2Scenario.uninfected[9].veinsmobility totalDistance 570.18997031377
scalar Sim2Scenario.uninfected[9].veinsmobility totalCO2Emission 156.80464516604
scalar Sim2Scenario.uninfected[13].appl generatedWSMs 0
scalar Sim2Scenario.uninfected[13].appl receivedWSMs 0
scalar Sim2Scenario.uninfected[13].appl generatedBSMs 0
scalar Sim2Scenario.uninfected[13].appl receivedBSMs 0
scalar Sim2Scenario.uninfected[13].appl generatedWSAs 0
scalar Sim2Scenario.uninfected[13].appl receivedWSAs 0
scalar Sim2Scenario.uninfected[13].nic.phy80211p busyTime 0
scalar Sim2Scenario.uninfected[13].nic.mac1609_4 ReceivedUnicastPackets 0
scalar Sim2Scenario.uninfected[13].nic.mac1609_4 ReceivedBroadcasts 0
scalar Sim2Scenario.uninfected[13].nic.mac1609_4 SentPackets 0
scalar Sim2Scenario.uninfected[13].nic.mac1609_4 SentAcknowledgements 0
scalar Sim2Scenario.uninfected[13].nic.mac1609_4 RetriesExceeded 0
scalar Sim2Scenario.uninfected[13].nic.mac1609_4 SNIRLostPackets 0
scalar Sim2Scenario.uninfected[13].nic.mac1609_4 RXTXLostPackets 0
scalar Sim2Scenario.uninfected[13].nic.mac1609_4 TotalLostPackets 0
scalar Sim2Scenario.uninfected[13].nic.mac1609_4 DroppedPacketsInMac 0
scalar Sim2Scenario.uninfected[13].nic.mac1609_4 TooLittleTime 0
scalar Sim2Scenario.uninfected[13].nic.mac1609_4 TimesIntoBackoff 0
scalar Sim2Scenario.uninfected[13].nic.mac1609_4 SlotsBackoff 0
scalar Sim2Scenario.uninfected[13].nic.mac1609_4 NumInternalContention 0
scalar Sim2Scenario.uninfected[13].nic.mac1609_4 totalBusyTime 0
scalar Sim2Scenario.uninfected[13].nic.mac1609_4 retriesExceeded:count 0
attr source org_car2x_veins_modules_mac_sigRetriesExceeded
scalar Sim2Scenario.uninfected[13].nic.mac1609_4 sentAcks:count 0
attr source org_car2x_veins_modules_mac_sigSentAck
scalar Sim2Scenario.uninfected[13].nic.mac1609_4 sentPackets:count 0
attr source org_car2x_veins_modules_mac_sigSentPacket
scalar Sim2Scenario.uninfected[13].nic.mac1609_4 collisions:count 0
attr source org_car2x_veins_modules_mac_sigCollision
scalar Sim2Scenario.uninfected[13].nic.mac1609_4 channelBusy:timeavg 0
attr source org_car2x_veins_modules_mac_sigChannelBusy
scalar Sim2Scenario.uninfected[13].veinsmobility startTime 14
scalar Sim2Scenario.uninfected[13].veinsmobility totalTime 48
scalar Sim2Scenario.uninfected[13].veinsmobility stopTime 63
scalar Sim2Scenario.uninfected[13].veinsmobility minSpeed 3.8004325452788
scalar Sim2Scenario.uninfected[13].veinsmobility maxSpeed 13.889763465817
scalar Sim2Scenario.uninfected[13].veinsmobility totalDistance 573.24117441808
scalar Sim2Scenario.uninfected[13].veinsmobility totalCO2Emission 133.86330881384
scalar Sim2Scenario.uninfected[0].appl generatedWSMs 0
scalar Sim2Scenario.uninfected[0].appl receivedWSMs 0
scalar Sim2Scenario.uninfected[0].appl generatedBSMs 0
scalar Sim2Scenario.uninfected[0].appl receivedBSMs 0
scalar Sim2Scenario.uninfected[0].appl generatedWSAs 0
scalar Sim2Scenario.uninfected[0].appl receivedWSAs 0
scalar Sim2Scenario.uninfected[0].nic.phy80211p busyTime 0
scalar Sim2Scenario.uninfected[0].nic.mac1609_4 ReceivedUnicastPackets 0
scalar Sim2Scenario.uninfected[0].nic.mac1609_4 ReceivedBroadcasts 0
scalar Sim2Scenario.uninfected[0].nic.mac1609_4 SentPackets 0
scalar Sim2Scenario.uninfected[0].nic.mac1609_4 SentAcknowledgements 0
scalar Sim2Scenario.uninfected[0].nic.mac1609_4 RetriesExceeded 0
scalar Sim2Scenario.uninfected[0].nic.mac1609_4 SNIRLostPackets 0
scalar Sim2Scenario.uninfected[0].nic.mac1609_4 RXTXLostPackets 0
scalar Sim2Scenario.uninfected[0].nic.mac1609_4 TotalLostPackets 0
scalar Sim2Scenario.uninfected[0].nic.mac1609_4 DroppedPacketsInMac 0
scalar Sim2Scenario.uninfected[0].nic.mac1609_4 TooLittleTime 0
scalar Sim2Scenario.uninfected[0].nic.mac1609_4 TimesIntoBackoff 0
scalar Sim2Scenario.uninfected[0].nic.mac1609_4 SlotsBackoff 0
scalar Sim2Scenario.uninfected[0].nic.mac1609_4 NumInternalContention 0
scalar Sim2Scenario.uninfected[0].nic.mac1609_4 totalBusyTime 0
scalar Sim2Scenario.uninfected[0].nic.mac1609_4 retriesExceeded:count 0
attr source org_car2x_veins_modules_mac_sigRetriesExceeded
scalar Sim2Scenario.uninfected[0].nic.mac1609_4 sentAcks:count 0
attr source org_car2x_veins_modules_mac_sigSentAck
scalar Sim2Scenario.uninfected[0].nic.mac1609_4 sentPackets:count 0
attr source org_car2x_veins_modules_mac_sigSentPacket
scalar Sim2Scenario.uninfected[0].nic.mac1609_4 collisions:count 0
attr source org_car2x_veins_modules_mac_sigCollision
scalar Sim2Scenario.uninfected[0].nic.mac1609_4 channelBusy:timeavg 0
attr source org_car2x_veins_modules_mac_sigChannelBusy
scalar Sim2Scenario.uninfected[0].veinsmobility startTime 1
scalar Sim2Scenario.uninfected[0].veinsmobility totalTime 61
scalar Sim2Scenario.uninfected[0].veinsmobility stopTime 63
scalar Sim2Scenario.uninfected[0].veinsmobility minSpeed 3.722822103166
scalar Sim2Scenario.uninfected[0].veinsmobility maxSpeed 13.882528818171
scalar Sim2Scenario.uninfected[0].veinsmobility totalDistance 763.49362231878
scalar Sim2Scenario.uninfected[0].veinsmobility totalCO2Emission 161.27984760855
scalar Sim2Scenario.uninfected[16].appl generatedWSMs 0
scalar Sim2Scenario.uninfected[16].appl receivedWSMs 0
scalar Sim2Scenario.uninfected[16].appl generatedBSMs 0
scalar Sim2Scenario.uninfected[16].appl receivedBSMs 0
scalar Sim2Scenario.uninfected[16].appl generatedWSAs 0
scalar Sim2Scenario.uninfected[16].appl receivedWSAs 0
scalar Sim2Scenario.uninfected[16].nic.phy80211p busyTime 0
scalar Sim2Scenario.uninfected[16].nic.mac1609_4 ReceivedUnicastPackets 0
scalar Sim2Scenario.uninfected[16].nic.mac1609_4 ReceivedBroadcasts 0
scalar Sim2Scenario.uninfected[16].nic.mac1609_4 SentPackets 0
scalar Sim2Scenario.uninfected[16].nic.mac1609_4 SentAcknowledgements 0
scalar Sim2Scenario.uninfected[16].nic.mac1609_4 RetriesExceeded 0
scalar Sim2Scenario.uninfected[16].nic.mac1609_4 SNIRLostPackets 0
scalar Sim2Scenario.uninfected[16].nic.mac1609_4 RXTXLostPackets 0
scalar Sim2Scenario.uninfected[16].nic.mac1609_4 TotalLostPackets 0
scalar Sim2Scenario.uninfected[16].nic.mac1609_4 DroppedPacketsInMac 0
scalar Sim2Scenario.uninfected[16].nic.mac1609_4 TooLittleTime 0
scalar Sim2Scenario.uninfected[16].nic.mac1609_4 TimesIntoBackoff 0
scalar Sim2Scenario.uninfected[16].nic.mac1609_4 SlotsBackoff 0
scalar Sim2Scenario.uninfected[16].nic.mac1609_4 NumInternalContention 0
scalar Sim2Scenario.uninfected[16].nic.mac1609_4 totalBusyTime 0
scalar Sim2Scenario.uninfected[16].nic.mac1609_4 retriesExceeded:count 0
attr source org_car2x_veins_modules_mac_sigRetriesExceeded
scalar Sim2Scenario.uninfected[16].nic.mac1609_4 sentAcks:count 0
attr source org_car2x_veins_modules_mac_sigSentAck
scalar Sim2Scenario.uninfected[16].nic.mac1609_4 sentPackets:count 0
attr source org_car2x_veins_modules_mac_sigSentPacket
scalar Sim2Scenario.uninfected[16].nic.mac1609_4 collisions:count 0
attr source org_car2x_veins_modules_mac_sigCollision
scalar Sim2Scenario.uninfected[16].nic.mac1609_4 channelBusy:timeavg 0
attr source org_car2x_veins_modules_mac_sigChannelBusy
scalar Sim2Scenario.uninfected[16].veinsmobility startTime 17
scalar Sim2Scenario.uninfected[16].veinsmobility totalTime 47
scalar Sim2Scenario.uninfected[16].veinsmobility stopTime 65
scalar Sim2Scenario.uninfected[16].veinsmobility minSpeed 4.1265234313304
scalar Sim2Scenario.uninfected[16].veinsmobility maxSpeed 13.882503290304
scalar Sim2Scenario.uninfected[16].veinsmobility totalDistance 568.49705681799
scalar Sim2Scenario.uninfected[16].veinsmobility totalCO2Emission 131.90328068092
scalar Sim2Scenario.uninfected[2].appl generatedWSMs 0
scalar Sim2Scenario.uninfected[2].appl receivedWSMs 0
scalar Sim2Scenario.uninfected[2].appl generatedBSMs 0
scalar Sim2Scenario.uninfected[2].appl receivedBSMs 0
scalar Sim2Scenario.uninfected[2].appl generatedWSAs 0
scalar Sim2Scenario.uninfected[2].appl receivedWSAs 0
scalar Sim2Scenario.uninfected[2].nic.phy80211p busyTime 0
scalar Sim2Scenario.uninfected[2].nic.mac1609_4 ReceivedUnicastPackets 0
scalar Sim2Scenario.uninfected[2].nic.mac1609_4 ReceivedBroadcasts 0
scalar Sim2Scenario.uninfected[2].nic.mac1609_4 SentPackets 0
scalar Sim2Scenario.uninfected[2].nic.mac1609_4 SentAcknowledgements 0
scalar Sim2Scenario.uninfected[2].nic.mac1609_4 RetriesExceeded 0
scalar Sim2Scenario.uninfected[2].nic.mac1609_4 SNIRLostPackets 0
scalar Sim2Scenario.uninfected[2].nic.mac1609_4 RXTXLostPackets 0
scalar Sim2Scenario.uninfected[2].nic.mac1609_4 TotalLostPackets 0
scalar Sim2Scenario.uninfected[2].nic.mac1609_4 DroppedPacketsInMac 0
scalar Sim2Scenario.uninfected[2].nic.mac1609_4 TooLittleTime 0
scalar Sim2Scenario.uninfected[2].nic.mac1609_4 TimesIntoBackoff 0
scalar Sim2Scenario.uninfected[2].nic.mac1609_4 SlotsBackoff 0
scalar Sim2Scenario.uninfected[2].nic.mac1609_4 NumInternalContention 0
scalar Sim2Scenario.uninfected[2].nic.mac1609_4 totalBusyTime 0
scalar Sim2Scenario.uninfected[2].nic.mac1609_4 retriesExceeded:count 0
attr source org_car2x_veins_modules_mac_sigRetriesExceeded
scalar Sim2Scenario.uninfected[2].nic.mac1609_4 sentAcks:count 0
attr source org_car2x_veins_modules_mac_sigSentAck
scalar Sim2Scenario.uninfected[2].nic.mac1609_4 sentPackets:count 0
attr source org_car2x_veins_modules_mac_sigSentPacket
scalar Sim2Scenario.uninfected[2].nic.mac1609_4 collisions:count 0
attr source org_car2x_veins_modules_mac_sigCollision
scalar Sim2Scenario.uninfected[2].nic.mac1609_4 channelBusy:timeavg 0
attr source org_car2x_veins_modules_mac_sigChannelBusy
scalar Sim2Scenario.uninfected[2].veinsmobility startTime 3
scalar Sim2Scenario.uninfected[2].veinsmobility totalTime 67
scalar Sim2Scenario.uninfected[2].veinsmobility stopTime 71
scalar Sim2Scenario.uninfected[2].veinsmobility minSpeed 3.3176953228269
scalar Sim2Scenario.uninfected[2].veinsmobility maxSpeed 13.884849982031
scalar Sim2Scenario.uninfected[2].veinsmobility totalDistance 758.34229990233
scalar Sim2Scenario.uninfected[2].veinsmobility totalCO2Emission 205.89275172096
scalar Sim2Scenario.uninfected[5].appl generatedWSMs 0
scalar Sim2Scenario.uninfected[5].appl receivedWSMs 0
scalar Sim2Scenario.uninfected[5].appl generatedBSMs 0
scalar Sim2Scenario.uninfected[5].appl receivedBSMs 0
scalar Sim2Scenario.uninfected[5].appl generatedWSAs 0
scalar Sim2Scenario.uninfected[5].appl receivedWSAs 0
scalar Sim2Scenario.uninfected[5].nic.phy80211p busyTime 0
scalar Sim2Scenario.uninfected[5].nic.mac1609_4 ReceivedUnicastPackets 0
scalar Sim2Scenario.uninfected[5].nic.mac1609_4 ReceivedBroadcasts 0
scalar Sim2Scenario.uninfected[5].nic.mac1609_4 SentPackets 0
scalar Sim2Scenario.uninfected[5].nic.mac1609_4 SentAcknowledgements 0
scalar Sim2Scenario.uninfected[5].nic.mac1609_4 RetriesExceeded 0
scalar Sim2Scenario.uninfected[5].nic.mac1609_4 SNIRLostPackets 0
scalar Sim2Scenario.uninfected[5].nic.mac1609_4 RXTXLostPackets 0
scalar Sim2Scenario.uninfected[5].nic.mac1609_4 TotalLostPackets 0
scalar Sim2Scenario.uninfected[5].nic.mac1609_4 DroppedPacketsInMac 0
scalar Sim2Scenario.uninfected[5].nic.mac1609_4 TooLittleTime 0
scalar Sim2Scenario.uninfected[5].nic.mac1609_4 TimesIntoBackoff 0
scalar Sim2Scenario.uninfected[5].nic.mac1609_4 SlotsBackoff 0
scalar Sim2Scenario.uninfected[5].nic.mac1609_4 NumInternalContention 0
scalar Sim2Scenario.uninfected[5].nic.mac1609_4 totalBusyTime 0
scalar Sim2Scenario.uninfected[5].nic.mac1609_4 retriesExceeded:count 0
attr source org_car2x_veins_modules_mac_sigRetriesExceeded
scalar Sim2Scenario.uninfected[5].nic.mac1609_4 sentAcks:count 0
attr source org_car2x_veins_modules_mac_sigSentAck
scalar Sim2Scenario.uninfected[5].nic.mac1609_4 sentPackets:count 0
attr source org_car2x_veins_modules_mac_sigSentPacket
scalar Sim2Scenario.uninfected[5].nic.mac1609_4 collisions:count 0
attr source org_car2x_veins_modules_mac_sigCollision
scalar Sim2Scenario.uninfected[5].nic.mac1609_4 channelBusy:timeavg 0
attr source org_car2x_veins_modules_mac_sigChannelBusy
scalar Sim2Scenario.uninfected[5].veinsmobility startTime 6
scalar Sim2Scenario.uninfected[5].veinsmobility totalTime 66
scalar Sim2Scenario.uninfected[5].veinsmobility stopTime 73
scalar Sim2Scenario.uninfected[5].veinsmobility minSpeed 3.5229142080061
scalar Sim2Scenario.uninfected[5].veinsmobility maxSpeed 13.885804472454
scalar Sim2Scenario.uninfected[5].veinsmobility totalDistance 757.0548749679
scalar Sim2Scenario.uninfected[5].veinsmobility totalCO2Emission 186.01210493343
scalar Sim2Scenario.uninfected[1].appl generatedWSMs 0
scalar Sim2Scenario.uninfected[1].appl receivedWSMs 0
scalar Sim2Scenario.uninfected[1].appl generatedBSMs 0
scalar Sim2Scenario.uninfected[1].appl receivedBSMs 0
scalar Sim2Scenario.uninfected[1].appl generatedWSAs 0
scalar Sim2Scenario.uninfected[1].appl receivedWSAs 0
scalar Sim2Scenario.uninfected[1].nic.phy80211p busyTime 0
scalar Sim2Scenario.uninfected[1].nic.mac1609_4 ReceivedUnicastPackets 0
scalar Sim2Scenario.uninfected[1].nic.mac1609_4 ReceivedBroadcasts 0
scalar Sim2Scenario.uninfected[1].nic.mac1609_4 SentPackets 0
scalar Sim2Scenario.uninfected[1].nic.mac1609_4 SentAcknowledgements 0
scalar Sim2Scenario.uninfected[1].nic.mac1609_4 RetriesExceeded 0
scalar Sim2Scenario.uninfected[1].nic.mac1609_4 SNIRLostPackets 0
scalar Sim2Scenario.uninfected[1].nic.mac1609_4 RXTXLostPackets 0
scalar Sim2Scenario.uninfected[1].nic.mac1609_4 TotalLostPackets 0
scalar Sim2Scenario.uninfected[1].nic.mac1609_4 DroppedPacketsInMac 0
scalar Sim2Scenario.uninfected[1].nic.mac1609_4 TooLittleTime 0
scalar Sim2Scenario.uninfected[1].nic.mac1609_4 TimesIntoBackoff 0
scalar Sim2Scenario.uninfected[1].nic.mac1609_4 SlotsBackoff 0
scalar Sim2Scenario.uninfected[1].nic.mac1609_4 NumInternalContention 0
scalar Sim2Scenario.uninfected[1].nic.mac1609_4 totalBusyTime 0
scalar Sim2Scenario.uninfected[1].nic.mac1609_4 retriesExceeded:count 0
attr source org_car2x_veins_modules_mac_sigRetriesExceeded
scalar Sim2Scenario.uninfected[1].nic.mac1609_4 sentAcks:count 0
attr source org_car2x_veins_modules_mac_sigSentAck
scalar Sim2Scenario.uninfected[1].nic.mac1609_4 sentPackets:count 0
attr source org_car2x_veins_modules_mac_sigSentPacket
scalar Sim2Scenario.uninfected[1].nic.mac1609_4 collisions:count 0
attr source org_car2x_veins_modules_mac_sigCollision
scalar Sim2Scenario.uninfected[1].nic.mac1609_4 channelBusy:timeavg 0
attr source org_car2x_veins_modules_mac_sigChannelBusy
scalar Sim2Scenario.uninfected[1].veinsmobility startTime 2
scalar Sim2Scenario.uninfected[1].veinsmobility totalTime 71
scalar Sim2Scenario.uninfected[1].veinsmobility stopTime 73.000009385592
scalar Sim2Scenario.uninfected[1].veinsmobility minSpeed 3.8605596513442
scalar Sim2Scenario.uninfected[1].veinsmobility maxSpeed 13.889889416588
scalar Sim2Scenario.uninfected[1].veinsmobility totalDistance 894.51475791401
scalar Sim2Scenario.uninfected[1].veinsmobility totalCO2Emission 190.45463416379
scalar Sim2Scenario.uninfected[10].appl generatedWSMs 0
scalar Sim2Scenario.uninfected[10].appl receivedWSMs 0
scalar Sim2Scenario.uninfected[10].appl generatedBSMs 0
scalar Sim2Scenario.uninfected[10].appl receivedBSMs 0
scalar Sim2Scenario.uninfected[10].appl generatedWSAs 0
scalar Sim2Scenario.uninfected[10].appl receivedWSAs 0
scalar Sim2Scenario.uninfected[10].nic.phy80211p busyTime 0
scalar Sim2Scenario.uninfected[10].nic.mac1609_4 ReceivedUnicastPackets 0
scalar Sim2Scenario.uninfected[10].nic.mac1609_4 ReceivedBroadcasts 0
scalar Sim2Scenario.uninfected[10].nic.mac1609_4 SentPackets 0
scalar Sim2Scenario.uninfected[10].nic.mac1609_4 SentAcknowledgements 0
scalar Sim2Scenario.uninfected[10].nic.mac1609_4 RetriesExceeded 0
scalar Sim2Scenario.uninfected[10].nic.mac1609_4 SNIRLostPackets 0
scalar Sim2Scenario.uninfected[10].nic.mac1609_4 RXTXLostPackets 0
scalar Sim2Scenario.uninfected[10].nic.mac1609_4 TotalLostPackets 0
scalar Sim2Scenario.uninfected[10].nic.mac1609_4 DroppedPacketsInMac 0
scalar Sim2Scenario.uninfected[10].nic.mac1609_4 TooLittleTime 0
scalar Sim2Scenario.uninfected[10].nic.mac1609_4 TimesIntoBackoff 0
scalar Sim2Scenario.uninfected[10].nic.mac1609_4 SlotsBackoff 0
scalar Sim2Scenario.uninfected[10].nic.mac1609_4 NumInternalContention 0
scalar Sim2Scenario.uninfected[10].nic.mac1609_4 totalBusyTime 0
scalar Sim2Scenario.uninfected[10].nic.mac1609_4 retriesExceeded:count 0
attr source org_car2x_veins_modules_mac_sigRetriesExceeded
scalar Sim2Scenario.uninfected[10].nic.mac1609_4 sentAcks:count 0
attr source org_car2x_veins_modules_mac_sigSentAck
scalar Sim2Scenario.uninfected[10].nic.mac1609_4 sentPackets:count 0
attr source org_car2x_veins_modules_mac_sigSentPacket
scalar Sim2Scenario.uninfected[10].nic.mac1609_4 collisions:count 0
attr source org_car2x_veins_modules_mac_sigCollision
scalar Sim2Scenario.uninfected[10].nic.mac1609_4 channelBusy:timeavg 0
attr source org_car2x_veins_modules_mac_sigChannelBusy
scalar Sim2Scenario.uninfected[10].veinsmobility startTime 11
scalar Sim2Scenario.uninfected[10].veinsmobility totalTime 62
scalar Sim2Scenario.uninfected[10].veinsmobility stopTime 73.000009385592
scalar Sim2Scenario.uninfected[10].veinsmobility minSpeed 3.4423509383507
scalar Sim2Scenario.uninfected[10].veinsmobility maxSpeed 13.882109054266
scalar Sim2Scenario.uninfected[10].veinsmobility totalDistance 668.14927417612
scalar Sim2Scenario.uninfected[10].veinsmobility totalCO2Emission 197.30200192917
scalar Sim2Scenario.uninfected[11].appl generatedWSMs 0
scalar Sim2Scenario.uninfected[11].appl receivedWSMs 0
scalar Sim2Scenario.uninfected[11].appl generatedBSMs 0
scalar Sim2Scenario.uninfected[11].appl receivedBSMs 0
scalar Sim2Scenario.uninfected[11].appl generatedWSAs 0
scalar Sim2Scenario.uninfected[11].appl receivedWSAs 0
scalar Sim2Scenario.uninfected[11].nic.phy80211p busyTime 0
scalar Sim2Scenario.uninfected[11].nic.mac1609_4 ReceivedUnicastPackets 0
scalar Sim2Scenario.uninfected[11].nic.mac1609_4 ReceivedBroadcasts 0
scalar Sim2Scenario.uninfected[11].nic.mac1609_4 SentPackets 0
scalar Sim2Scenario.uninfected[11].nic.mac1609_4 SentAcknowledgements 0
scalar Sim2Scenario.uninfected[11].nic.mac1609_4 RetriesExceeded 0
scalar Sim2Scenario.uninfected[11].nic.mac1609_4 SNIRLostPackets 0
scalar Sim2Scenario.uninfected[11].nic.mac1609_4 RXTXLostPackets 0
scalar Sim2Scenario.uninfected[11].nic.mac1609_4 TotalLostPackets 0
scalar Sim2Scenario.uninfected[11].nic.mac1609_4 DroppedPacketsInMac 0
scalar Sim2Scenario.uninfected[11].nic.mac1609_4 TooLittleTime 0
scalar Sim2Scenario.uninfected[11].nic.mac1609_4 TimesIntoBackoff 0
scalar Sim2Scenario.uninfected[11].nic.mac1609_4 SlotsBackoff 0
scalar Sim2Scenario.uninfected[11].nic.mac1609_4 NumInternalContention 0
scalar Sim2Scenario.uninfected[11].nic.mac1609_4 totalBusyTime 0
scalar Sim2Scenario.uninfected[11].nic.mac1609_4 retriesExceeded:count 0
attr source org_car2x_veins_modules_mac_sigRetriesExceeded
scalar Sim2Scenario.uninfected[11].nic.mac1609_4 sentAcks:count 0
attr source org_car2x_veins_modules_mac_sigSentAck
scalar Sim2Scenario.uninfected[11].nic.mac1609_4 sentPackets:count 0
attr source org_car2x_veins_modules_mac_sigSentPacket
scalar Sim2Scenario.uninfected[11].nic.mac1609_4 collisions:count 0
attr source org_car2x_veins_modules_mac_sigCollision
scalar Sim2Scenario.uninfected[11].nic.mac1609_4 channelBusy:timeavg 0
attr source org_car2x_veins_modules_mac_sigChannelBusy
scalar Sim2Scenario.uninfected[11].veinsmobility startTime 12
scalar Sim2Scenario.uninfected[11].veinsmobility totalTime 61
scalar Sim2Scenario.uninfected[11].veinsmobility stopTime 73.000009385592
scalar Sim2Scenario.uninfected[11].veinsmobility minSpeed 3.5885107131671
scalar Sim2Scenario.uninfected[11].veinsmobility maxSpeed 13.888562554053
scalar Sim2Scenario.uninfected[11].veinsmobility totalDistance 712.44565197563
scalar Sim2Scenario.uninfected[11].veinsmobility totalCO2Emission 174.71147386338
scalar Sim2Scenario.uninfected[12].appl generatedWSMs 0
scalar Sim2Scenario.uninfected[12].appl receivedWSMs 0
scalar Sim2Scenario.uninfected[12].appl generatedBSMs 0
scalar Sim2Scenario.uninfected[12].appl receivedBSMs 0
scalar Sim2Scenario.uninfected[12].appl generatedWSAs 0
scalar Sim2Scenario.uninfected[12].appl receivedWSAs 0
scalar Sim2Scenario.uninfected[12].nic.phy80211p busyTime 0
scalar Sim2Scenario.uninfected[12].nic.mac1609_4 ReceivedUnicastPackets 0
scalar Sim2Scenario.uninfected[12].nic.mac1609_4 ReceivedBroadcasts 0
scalar Sim2Scenario.uninfected[12].nic.mac1609_4 SentPackets 0
scalar Sim2Scenario.uninfected[12].nic.mac1609_4 SentAcknowledgements 0
scalar Sim2Scenario.uninfected[12].nic.mac1609_4 RetriesExceeded 0
scalar Sim2Scenario.uninfected[12].nic.mac1609_4 SNIRLostPackets 0
scalar Sim2Scenario.uninfected[12].nic.mac1609_4 RXTXLostPackets 0
scalar Sim2Scenario.uninfected[12].nic.mac1609_4 TotalLostPackets 0
scalar Sim2Scenario.uninfected[12].nic.mac1609_4 DroppedPacketsInMac 0
scalar Sim2Scenario.uninfected[12].nic.mac1609_4 TooLittleTime 0
scalar Sim2Scenario.uninfected[12].nic.mac1609_4 TimesIntoBackoff 0
scalar Sim2Scenario.uninfected[12].nic.mac1609_4 SlotsBackoff 0
scalar Sim2Scenario.uninfected[12].nic.mac1609_4 NumInternalContention 0
scalar Sim2Scenario.uninfected[12].nic.mac1609_4 totalBusyTime 0
scalar Sim2Scenario.uninfected[12].nic.mac1609_4 retriesExceeded:count 0
attr source org_car2x_veins_modules_mac_sigRetriesExceeded
scalar Sim2Scenario.uninfected[12].nic.mac1609_4 sentAcks:count 0
attr source org_car2x_veins_modules_mac_sigSentAck
scalar Sim2Scenario.uninfected[12].nic.mac1609_4 sentPackets:count 0
attr source org_car2x_veins_modules_mac_sigSentPacket
scalar Sim2Scenario.uninfected[12].nic.mac1609_4 collisions:count 0
attr source org_car2x_veins_modules_mac_sigCollision
scalar Sim2Scenario.uninfected[12].nic.mac1609_4 channelBusy:timeavg 0
attr source org_car2x_veins_modules_mac_sigChannelBusy
scalar Sim2Scenario.uninfected[12].veinsmobility startTime 13
scalar Sim2Scenario.uninfected[12].veinsmobility totalTime 60
scalar Sim2Scenario.uninfected[12].veinsmobility stopTime 73.000009385592
scalar Sim2Scenario.uninfected[12].veinsmobility minSpeed 3.3973366077989
scalar Sim2Scenario.uninfected[12].veinsmobility maxSpeed 13.888971277256
scalar Sim2Scenario.uninfected[12].veinsmobility totalDistance 749.54971485819
scalar Sim2Scenario.uninfected[12].veinsmobility totalCO2Emission 159.61489560297
scalar Sim2Scenario.uninfected[14].appl generatedWSMs 0
scalar Sim2Scenario.uninfected[14].appl receivedWSMs 0
scalar Sim2Scenario.uninfected[14].appl generatedBSMs 0
scalar Sim2Scenario.uninfected[14].appl receivedBSMs 0
scalar Sim2Scenario.uninfected[14].appl generatedWSAs 0
scalar Sim2Scenario.uninfected[14].appl receivedWSAs 0
scalar Sim2Scenario.uninfected[14].nic.phy80211p busyTime 0
scalar Sim2Scenario.uninfected[14].nic.mac1609_4 ReceivedUnicastPackets 0
scalar Sim2Scenario.uninfected[14].nic.mac1609_4 ReceivedBroadcasts 0
scalar Sim2Scenario.uninfected[14].nic.mac1609_4 SentPackets 0
scalar Sim2Scenario.uninfected[14].nic.mac1609_4 SentAcknowledgements 0
scalar Sim2Scenario.uninfected[14].nic.mac1609_4 RetriesExceeded 0
scalar Sim2Scenario.uninfected[14].nic.mac1609_4 SNIRLostPackets 0
scalar Sim2Scenario.uninfected[14].nic.mac1609_4 RXTXLostPackets 0
scalar Sim2Scenario.uninfected[14].nic.mac1609_4 TotalLostPackets 0
scalar Sim2Scenario.uninfected[14].nic.mac1609_4 DroppedPacketsInMac 0
scalar Sim2Scenario.uninfected[14].nic.mac1609_4 TooLittleTime 0
scalar Sim2Scenario.uninfected[14].nic.mac1609_4 TimesIntoBackoff 0
scalar Sim2Scenario.uninfected[14].nic.mac1609_4 SlotsBackoff 0
scalar Sim2Scenario.uninfected[14].nic.mac1609_4 NumInternalContention 0
scalar Sim2Scenario.uninfected[14].nic.mac1609_4 totalBusyTime 0
scalar Sim2Scenario.uninfected[14].nic.mac1609_4 retriesExceeded:count 0
attr source org_car2x_veins_modules_mac_sigRetriesExceeded
scalar Sim2Scenario.uninfected[14].nic.mac1609_4 sentAcks:count 0
attr source org_car2x_veins_modules_mac_sigSentAck
scalar Sim2Scenario.uninfected[14].nic.mac1609_4 sentPackets:count 0
attr source org_car2x_veins_modules_mac_sigSentPacket
scalar Sim2Scenario.uninfected[14].nic.mac1609_4 collisions:count 0
attr source org_car2x_veins_modules_mac_sigCollision
scalar Sim2Scenario.uninfected[14].nic.mac1609_4 channelBusy:timeavg 0
attr source org_car2x_veins_modules_mac_sigChannelBusy
scalar Sim2Scenario.uninfected[14].veinsmobility startTime 15
scalar Sim2Scenario.uninfected[14].veinsmobility totalTime 58
scalar Sim2Scenario.uninfected[14].veinsmobility stopTime 73.000009385592
scalar Sim2Scenario.uninfected[14].veinsmobility minSpeed 2.8013693035055
scalar Sim2Scenario.uninfected[14].veinsmobility maxSpeed 13.886808744448
scalar Sim2Scenario.uninfected[14].veinsmobility totalDistance 603.55874383336
scalar Sim2Scenario.uninfected[14].veinsmobility totalCO2Emission 183.71599583928
scalar Sim2Scenario.uninfected[15].appl generatedWSMs 0
scalar Sim2Scenario.uninfected[15].appl receivedWSMs 0
scalar Sim2Scenario.uninfected[15].appl generatedBSMs 0
scalar Sim2Scenario.uninfected[15].appl receivedBSMs 0
scalar Sim2Scenario.uninfected[15].appl generatedWSAs 0
scalar Sim2Scenario.uninfected[15].appl receivedWSAs 0
scalar Sim2Scenario.uninfected[15].nic.phy80211p busyTime 0
scalar Sim2Scenario.uninfected[15].nic.mac1609_4 ReceivedUnicastPackets 0
scalar Sim2Scenario.uninfected[15].nic.mac1609_4 ReceivedBroadcasts 0
scalar Sim2Scenario.uninfected[15].nic.mac1609_4 SentPackets 0
scalar Sim2Scenario.uninfected[15].nic.mac1609_4 SentAcknowledgements 0
scalar Sim2Scenario.uninfected[15].nic.mac1609_4 RetriesExceeded 0
scalar Sim2Scenario.uninfected[15].nic.mac1609_4 SNIRLostPackets 0
scalar Sim2Scenario.uninfected[15].nic.mac1609_4 RXTXLostPackets 0
scalar Sim2Scenario.uninfected[15].nic.mac1609_4 TotalLostPackets 0
scalar Sim2Scenario.uninfected[15].nic.mac1609_4 DroppedPacketsInMac 0
scalar Sim2Scenario.uninfected[15].nic.mac1609_4 TooLittleTime 0
scalar Sim2Scenario.uninfected[15].nic.mac1609_4 TimesIntoBackoff 0
scalar Sim2Scenario.uninfected[15].nic.mac1609_4 SlotsBackoff 0
scalar Sim2Scenario.uninfected[15].nic.mac1609_4 NumInternalContention 0
scalar Sim2Scenario.uninfected[15].nic.mac1609_4 totalBusyTime 0
scalar Sim2Scenario.uninfected[15].nic.mac1609_4 retriesExceeded:count 0
attr source org_car2x_veins_modules_mac_sigRetriesExceeded
scalar Sim2Scenario.uninfected[15].nic.mac1609_4 sentAcks:count 0
attr source org_car2x_veins_modules_mac_sigSentAck
scalar Sim2Scenario.uninfected[15].nic.mac1609_4 sentPackets:count 0
attr source org_car2x_veins_modules_mac_sigSentPacket
scalar Sim2Scenario.uninfected[15].nic.mac1609_4 collisions:count 0
attr source org_car2x_veins_modules_mac_sigCollision
scalar Sim2Scenario.uninfected[15].nic.mac1609_4 channelBusy:timeavg 0
attr source org_car2x_veins_modules_mac_sigChannelBusy
scalar Sim2Scenario.uninfected[15].veinsmobility startTime 16
scalar Sim2Scenario.uninfected[15].veinsmobility totalTime 57
scalar Sim2Scenario.uninfected[15].veinsmobility stopTime 73.000009385592
scalar Sim2Scenario.uninfected[15].veinsmobility minSpeed 0.53709502093064
scalar Sim2Scenario.uninfected[15].veinsmobility maxSpeed 13.8870143887
scalar Sim2Scenario.uninfected[15].veinsmobility totalDistance 589.32982487097
scalar Sim2Scenario.uninfected[15].veinsmobility totalCO2Emission 174.27035281032
scalar Sim2Scenario.exploited[17].appl generatedWSMs 0
scalar Sim2Scenario.exploited[17].appl receivedWSMs 0
scalar Sim2Scenario.exploited[17].appl generatedBSMs 0
scalar Sim2Scenario.exploited[17].appl receivedBSMs 0
scalar Sim2Scenario.exploited[17].appl generatedWSAs 0
scalar Sim2Scenario.exploited[17].appl receivedWSAs 0
scalar Sim2Scenario.exploited[17].nic.phy80211p busyTime 0
scalar Sim2Scenario.exploited[17].nic.mac1609_4 ReceivedUnicastPackets 0
scalar Sim2Scenario.exploited[17].nic.mac1609_4 ReceivedBroadcasts 0
scalar Sim2Scenario.exploited[17].nic.mac1609_4 SentPackets 0
scalar Sim2Scenario.exploited[17].nic.mac1609_4 SentAcknowledgements 0
scalar Sim2Scenario.exploited[17].nic.mac1609_4 RetriesExceeded 0
scalar Sim2Scenario.exploited[17].nic.mac1609_4 SNIRLostPackets 0
scalar Sim2Scenario.exploited[17].nic.mac1609_4 RXTXLostPackets 0
scalar Sim2Scenario.exploited[17].nic.mac1609_4 TotalLostPackets 0
scalar Sim2Scenario.exploited[17].nic.mac1609_4 DroppedPacketsInMac 0
scalar Sim2Scenario.exploited[17].nic.mac1609_4 TooLittleTime 0
scalar Sim2Scenario.exploited[17].nic.mac1609_4 TimesIntoBackoff 0
scalar Sim2Scenario.exploited[17].nic.mac1609_4 SlotsBackoff 0
scalar Sim2Scenario.exploited[17].nic.mac1609_4 NumInternalContention 0
scalar Sim2Scenario.exploited[17].nic.mac1609_4 totalBusyTime 0
scalar Sim2Scenario.exploited[17].nic.mac1609_4 retriesExceeded:count 0
attr source org_car2x_veins_modules_mac_sigRetriesExceeded
scalar Sim2Scenario.exploited[17].nic.mac1609_4 sentAcks:count 0
attr source org_car2x_veins_modules_mac_sigSentAck
scalar Sim2Scenario.exploited[17].nic.mac1609_4 sentPackets:count 0
attr source org_car2x_veins_modules_mac_sigSentPacket
scalar Sim2Scenario.exploited[17].nic.mac1609_4 collisions:count 0
attr source org_car2x_veins_modules_mac_sigCollision
scalar Sim2Scenario.exploited[17].nic.mac1609_4 channelBusy:timeavg 0
attr source org_car2x_veins_modules_mac_sigChannelBusy
scalar Sim2Scenario.exploited[17].veinsmobility startTime 18
scalar Sim2Scenario.exploited[17].veinsmobility totalTime 55
scalar Sim2Scenario.exploited[17].veinsmobility stopTime 73.000009385592
scalar Sim2Scenario.exploited[17].veinsmobility minSpeed 3.8093035120389
scalar Sim2Scenario.exploited[17].veinsmobility maxSpeed 13.882726848784
scalar Sim2Scenario.exploited[17].veinsmobility totalDistance 638.75485042167
scalar Sim2Scenario.exploited[17].veinsmobility totalCO2Emission 162.77367919056
scalar Sim2Scenario.uninfected[18].appl generatedWSMs 0
scalar Sim2Scenario.uninfected[18].appl receivedWSMs 0
scalar Sim2Scenario.uninfected[18].appl generatedBSMs 0
scalar Sim2Scenario.uninfected[18].appl receivedBSMs 0
scalar Sim2Scenario.uninfected[18].appl generatedWSAs 0
scalar Sim2Scenario.uninfected[18].appl receivedWSAs 0
scalar Sim2Scenario.uninfected[18].nic.phy80211p busyTime 0
scalar Sim2Scenario.uninfected[18].nic.mac1609_4 ReceivedUnicastPackets 0
scalar Sim2Scenario.uninfected[18].nic.mac1609_4 ReceivedBroadcasts 0
scalar Sim2Scenario.uninfected[18].nic.mac1609_4 SentPackets 0
scalar Sim2Scenario.uninfected[18].nic.mac1609_4 SentAcknowledgements 0
scalar Sim2Scenario.uninfected[18].nic.mac1609_4 RetriesExceeded 0
scalar Sim2Scenario.uninfected[18].nic.mac1609_4 SNIRLostPackets 0
scalar Sim2Scenario.uninfected[18].nic.mac1609_4 RXTXLostPackets 0
scalar Sim2Scenario.uninfected[18].nic.mac1609_4 TotalLostPackets 0
scalar Sim2Scenario.uninfected[18].nic.mac1609_4 DroppedPacketsInMac 0
scalar Sim2Scenario.uninfected[18].nic.mac1609_4 TooLittleTime 0
scalar Sim2Scenario.uninfected[18].nic.mac1609_4 TimesIntoBackoff 0
scalar Sim2Scenario.uninfected[18].nic.mac1609_4 SlotsBackoff 0
scalar Sim2Scenario.uninfected[18].nic.mac1609_4 NumInternalContention 0
scalar Sim2Scenario.uninfected[18].nic.mac1609_4 totalBusyTime 0
scalar Sim2Scenario.uninfected[18].nic.mac1609_4 retriesExceeded:count 0
attr source org_car2x_veins_modules_mac_sigRetriesExceeded
scalar Sim2Scenario.uninfected[18].nic.mac1609_4 sentAcks:count 0
attr source org_car2x_veins_modules_mac_sigSentAck
scalar Sim2Scenario.uninfected[18].nic.mac1609_4 sentPackets:count 0
attr source org_car2x_veins_modules_mac_sigSentPacket
scalar Sim2Scenario.uninfected[18].nic.mac1609_4 collisions:count 0
attr source org_car2x_veins_modules_mac_sigCollision
scalar Sim2Scenario.uninfected[18].nic.mac1609_4 channelBusy:timeavg 0
attr source org_car2x_veins_modules_mac_sigChannelBusy
scalar Sim2Scenario.uninfected[18].veinsmobility startTime 19
scalar Sim2Scenario.uninfected[18].veinsmobility totalTime 54
scalar Sim2Scenario.uninfected[18].veinsmobility stopTime 73.000009385592
scalar Sim2Scenario.uninfected[18].veinsmobility minSpeed 3.6172514760634
scalar Sim2Scenario.uninfected[18].veinsmobility maxSpeed 13.88748094046
scalar Sim2Scenario.uninfected[18].veinsmobility totalDistance 614.37176583047
scalar Sim2Scenario.uninfected[18].veinsmobility totalCO2Emission 156.85396407854
scalar Sim2Scenario.uninfected[19].appl generatedWSMs 0
scalar Sim2Scenario.uninfected[19].appl receivedWSMs 0
scalar Sim2Scenario.uninfected[19].appl generatedBSMs 0
scalar Sim2Scenario.uninfected[19].appl receivedBSMs 0
scalar Sim2Scenario.uninfected[19].appl generatedWSAs 0
scalar Sim2Scenario.uninfected[19].appl receivedWSAs 0
scalar Sim2Scenario.uninfected[19].nic.phy80211p busyTime 0
scalar Sim2Scenario.uninfected[19].nic.mac1609_4 ReceivedUnicastPackets 0
scalar Sim2Scenario.uninfected[19].nic.mac1609_4 ReceivedBroadcasts 0
scalar Sim2Scenario.uninfected[19].nic.mac1609_4 SentPackets 0
scalar Sim2Scenario.uninfected[19].nic.mac1609_4 SentAcknowledgements 0
scalar Sim2Scenario.uninfected[19].nic.mac1609_4 RetriesExceeded 0
scalar Sim2Scenario.uninfected[19].nic.mac1609_4 SNIRLostPackets 0
scalar Sim2Scenario.uninfected[19].nic.mac1609_4 RXTXLostPackets 0
scalar Sim2Scenario.uninfected[19].nic.mac1609_4 TotalLostPackets 0
scalar Sim2Scenario.uninfected[19].nic.mac1609_4 DroppedPacketsInMac 0
scalar Sim2Scenario.uninfected[19].nic.mac1609_4 TooLittleTime 0
scalar Sim2Scenario.uninfected[19].nic.mac1609_4 TimesIntoBackoff 0
scalar Sim2Scenario.uninfected[19].nic.mac1609_4 SlotsBackoff 0
scalar Sim2Scenario.uninfected[19].nic.mac1609_4 NumInternalContention 0
scalar Sim2Scenario.uninfected[19].nic.mac1609_4 totalBusyTime 0
scalar Sim2Scenario.uninfected[19].nic.mac1609_4 retriesExceeded:count 0
attr source org_car2x_veins_modules_mac_sigRetriesExceeded
scalar Sim2Scenario.uninfected[19].nic.mac1609_4 sentAcks:count 0
attr source org_car2x_veins_modules_mac_sigSentAck
scalar Sim2Scenario.uninfected[19].nic.mac1609_4 sentPackets:count 0
attr source org_car2x_veins_modules_mac_sigSentPacket
scalar Sim2Scenario.uninfected[19].nic.mac1609_4 collisions:count 0
attr source org_car2x_veins_modules_mac_sigCollision
scalar Sim2Scenario.uninfected[19].nic.mac1609_4 channelBusy:timeavg 0
attr source org_car2x_veins_modules_mac_sigChannelBusy
scalar Sim2Scenario.uninfected[19].veinsmobility startTime 20
scalar Sim2Scenario.uninfected[19].veinsmobility totalTime 53
scalar Sim2Scenario.uninfected[19].veinsmobility stopTime 73.000009385592
scalar Sim2Scenario.uninfected[19].veinsmobility minSpeed 4.1836085551388
scalar Sim2Scenario.uninfected[19].veinsmobility maxSpeed 13.886151023735
scalar Sim2Scenario.uninfected[19].veinsmobility totalDistance 665.25587934624
scalar Sim2Scenario.uninfected[19].veinsmobility totalCO2Emission 142.2412156927
scalar Sim2Scenario.uninfected[20].appl generatedWSMs 0
scalar Sim2Scenario.uninfected[20].appl receivedWSMs 0
scalar Sim2Scenario.uninfected[20].appl generatedBSMs 0
scalar Sim2Scenario.uninfected[20].appl receivedBSMs 0
scalar Sim2Scenario.uninfected[20].appl generatedWSAs 0
scalar Sim2Scenario.uninfected[20].appl receivedWSAs 0
scalar Sim2Scenario.uninfected[20].nic.phy80211p busyTime 0
scalar Sim2Scenario.uninfected[20].nic.mac1609_4 ReceivedUnicastPackets 0
scalar Sim2Scenario.uninfected[20].nic.mac1609_4 ReceivedBroadcasts 0
scalar Sim2Scenario.uninfected[20].nic.mac1609_4 SentPackets 0
scalar Sim2Scenario.uninfected[20].nic.mac1609_4 SentAcknowledgements 0
scalar Sim2Scenario.uninfected[20].nic.mac1609_4 RetriesExceeded 0
scalar Sim2Scenario.uninfected[20].nic.mac1609_4 SNIRLostPackets 0
scalar Sim2Scenario.uninfected[20].nic.mac1609_4 RXTXLostPackets 0
scalar Sim2Scenario.uninfected[20].nic.mac1609_4 TotalLostPackets 0
scalar Sim2Scenario.uninfected[20].nic.mac1609_4 DroppedPacketsInMac 0
scalar Sim2Scenario.uninfected[20].nic.mac1609_4 TooLittleTime 0
scalar Sim2Scenario.uninfected[20].nic.mac1609_4 TimesIntoBackoff 0
scalar Sim2Scenario.uninfected[20].nic.mac1609_4 SlotsBackoff 0
scalar Sim2Scenario.uninfected[20].nic.mac1609_4 NumInternalContention 0
scalar Sim2Scenario.uninfected[20].nic.mac1609_4 totalBusyTime 0
scalar Sim2Scenario.uninfected[20].nic.mac1609_4 retriesExceeded:count 0
attr source org_car2x_veins_modules_mac_sigRetriesExceeded
scalar Sim2Scenario.uninfected[20].nic.mac1609_4 sentAcks:count 0
attr source org_car2x_veins_modules_mac_sigSentAck
scalar Sim2Scenario.uninfected[20].nic.mac1609_4 sentPackets:count 0
attr source org_car2x_veins_modules_mac_sigSentPacket
scalar Sim2Scenario.uninfected[20].nic.mac1609_4 collisions:count 0
attr source org_car2x_veins_modules_mac_sigCollision
scalar Sim2Scenario.uninfected[20].nic.mac1609_4 channelBusy:timeavg 0
attr source org_car2x_veins_modules_mac_sigChannelBusy
scalar Sim2Scenario.uninfected[20].veinsmobility startTime 21
scalar Sim2Scenario.uninfected[20].veinsmobility totalTime 52
scalar Sim2Scenario.uninfected[20].veinsmobility stopTime 73.000009385592
scalar Sim2Scenario.uninfected[20].veinsmobility minSpeed 3.6168500979611
scalar Sim2Scenario.uninfected[20].veinsmobility maxSpeed 13.885193817336
scalar Sim2Scenario.uninfected[20].veinsmobility totalDistance 591.73311508622
scalar Sim2Scenario.uninfected[20].veinsmobility totalCO2Emission 143.1619201034
scalar Sim2Scenario.uninfected[21].appl generatedWSMs 0
scalar Sim2Scenario.uninfected[21].appl receivedWSMs 0
scalar Sim2Scenario.uninfected[21].appl generatedBSMs 0
scalar Sim2Scenario.uninfected[21].appl receivedBSMs 0
scalar Sim2Scenario.uninfected[21].appl generatedWSAs 0
scalar Sim2Scenario.uninfected[21].appl receivedWSAs 0
scalar Sim2Scenario.uninfected[21].nic.phy80211p busyTime 0
scalar Sim2Scenario.uninfected[21].nic.mac1609_4 ReceivedUnicastPackets 0
scalar Sim2Scenario.uninfected[21].nic.mac1609_4 ReceivedBroadcasts 0
scalar Sim2Scenario.uninfected[21].nic.mac1609_4 SentPackets 0
scalar Sim2Scenario.uninfected[21].nic.mac1609_4 SentAcknowledgements 0
scalar Sim2Scenario.uninfected[21].nic.mac1609_4 RetriesExceeded 0
scalar Sim2Scenario.uninfected[21].nic.mac1609_4 SNIRLostPackets 0
scalar Sim2Scenario.uninfected[21].nic.mac1609_4 RXTXLostPackets 0
scalar Sim2Scenario.uninfected[21].nic.mac1609_4 TotalLostPackets 0
scalar Sim2Scenario.uninfected[21].nic.mac1609_4 DroppedPacketsInMac 0
scalar Sim2Scenario.uninfected[21].nic.mac1609_4 TooLittleTime 0
scalar Sim2Scenario.uninfected[21].nic.mac1609_4 TimesIntoBackoff 0
scalar Sim2Scenario.uninfected[21].nic.mac1609_4 SlotsBackoff 0
scalar Sim2Scenario.uninfected[21].nic.mac1609_4 NumInternalContention 0
scalar Sim2Scenario.uninfected[21].nic.mac1609_4 totalBusyTime 0
scalar Sim2Scenario.uninfected[21].nic.mac1609_4 retriesExceeded:count 0
attr source org_car2x_veins_modules_mac_sigRetriesExceeded
scalar Sim2Scenario.uninfected[21].nic.mac1609_4 sentAcks:count 0
attr source org_car2x_veins_modules_mac_sigSentAck
scalar Sim2Scenario.uninfected[21].nic.mac1609_4 sentPackets:count 0
attr source org_car2x_veins_modules_mac_sigSentPacket
scalar Sim2Scenario.uninfected[21].nic.mac1609_4 collisions:count 0
attr source org_car2x_veins_modules_mac_sigCollision
scalar Sim2Scenario.uninfected[21].nic.mac1609_4 channelBusy:timeavg 0
attr source org_car2x_veins_modules_mac_sigChannelBusy
scalar Sim2Scenario.uninfected[21].veinsmobility startTime 22
scalar Sim2Scenario.uninfected[21].veinsmobility totalTime 51
scalar Sim2Scenario.uninfected[21].veinsmobility stopTime 73.000009385592
scalar Sim2Scenario.uninfected[21].veinsmobility minSpeed 3.5423361058903
scalar Sim2Scenario.uninfected[21].veinsmobility maxSpeed 13.889317078406
scalar Sim2Scenario.uninfected[21].veinsmobility totalDistance 562.70446026796
scalar Sim2Scenario.uninfected[21].veinsmobility totalCO2Emission 157.37232127467
scalar Sim2Scenario.uninfected[22].appl generatedWSMs 1
scalar Sim2Scenario.uninfected[22].appl receivedWSMs 0
scalar Sim2Scenario.uninfected[22].appl generatedBSMs 0
scalar Sim2Scenario.uninfected[22].appl receivedBSMs 0
scalar Sim2Scenario.uninfected[22].appl generatedWSAs 0
scalar Sim2Scenario.uninfected[22].appl receivedWSAs 0
scalar Sim2Scenario.uninfected[22].nic.phy80211p busyTime 0
scalar Sim2Scenario.uninfected[22].nic.mac1609_4 ReceivedUnicastPackets 0
scalar Sim2Scenario.uninfected[22].nic.mac1609_4 ReceivedBroadcasts 0
scalar Sim2Scenario.uninfected[22].nic.mac1609_4 SentPackets 1
scalar Sim2Scenario.uninfected[22].nic.mac1609_4 SentAcknowledgements 0
scalar Sim2Scenario.uninfected[22].nic.mac1609_4 RetriesExceeded 0
scalar Sim2Scenario.uninfected[22].nic.mac1609_4 SNIRLostPackets 0
scalar Sim2Scenario.uninfected[22].nic.mac1609_4 RXTXLostPackets 0
scalar Sim2Scenario.uninfected[22].nic.mac1609_4 TotalLostPackets 0
scalar Sim2Scenario.uninfected[22].nic.mac1609_4 DroppedPacketsInMac 0
scalar Sim2Scenario.uninfected[22].nic.mac1609_4 TooLittleTime 0
scalar Sim2Scenario.uninfected[22].nic.mac1609_4 TimesIntoBackoff 0
scalar Sim2Scenario.uninfected[22].nic.mac1609_4 SlotsBackoff 0
scalar Sim2Scenario.uninfected[22].nic.mac1609_4 NumInternalContention 0
scalar Sim2Scenario.uninfected[22].nic.mac1609_4 totalBusyTime 0
scalar Sim2Scenario.uninfected[22].nic.mac1609_4 retriesExceeded:count 0
attr source org_car2x_veins_modules_mac_sigRetriesExceeded
scalar Sim2Scenario.uninfected[22].nic.mac1609_4 sentAcks:count 0
attr source org_car2x_veins_modules_mac_sigSentAck
scalar Sim2Scenario.uninfected[22].nic.mac1609_4 sentPackets:count 1
attr source org_car2x_veins_modules_mac_sigSentPacket
scalar Sim2Scenario.uninfected[22].nic.mac1609_4 collisions:count 0
attr source org_car2x_veins_modules_mac_sigCollision
scalar Sim2Scenario.uninfected[22].nic.mac1609_4 channelBusy:timeavg 2.771183479816e-008
attr source org_car2x_veins_modules_mac_sigChannelBusy
scalar Sim2Scenario.uninfected[22].veinsmobility startTime 23
scalar Sim2Scenario.uninfected[22].veinsmobility totalTime 50
scalar Sim2Scenario.uninfected[22].veinsmobility stopTime 73.000009385592
scalar Sim2Scenario.uninfected[22].veinsmobility minSpeed 0
scalar Sim2Scenario.uninfected[22].veinsmobility maxSpeed 13.882030911413
scalar Sim2Scenario.uninfected[22].veinsmobility totalDistance 368.64055704438
scalar Sim2Scenario.uninfected[22].veinsmobility totalCO2Emission 119.18232043276
scalar Sim2Scenario.uninfected[24].appl generatedWSMs 0
scalar Sim2Scenario.uninfected[24].appl receivedWSMs 0
scalar Sim2Scenario.uninfected[24].appl generatedBSMs 0
scalar Sim2Scenario.uninfected[24].appl receivedBSMs 0
scalar Sim2Scenario.uninfected[24].appl generatedWSAs 0
scalar Sim2Scenario.uninfected[24].appl receivedWSAs 0
scalar Sim2Scenario.uninfected[24].nic.phy80211p busyTime 0
scalar Sim2Scenario.uninfected[24].nic.mac1609_4 ReceivedUnicastPackets 0
scalar Sim2Scenario.uninfected[24].nic.mac1609_4 ReceivedBroadcasts 0
scalar Sim2Scenario.uninfected[24].nic.mac1609_4 SentPackets 0
scalar Sim2Scenario.uninfected[24].nic.mac1609_4 SentAcknowledgements 0
scalar Sim2Scenario.uninfected[24].nic.mac1609_4 RetriesExceeded 0
scalar Sim2Scenario.uninfected[24].nic.mac1609_4 SNIRLostPackets 0
scalar Sim2Scenario.uninfected[24].nic.mac1609_4 RXTXLostPackets 0
scalar Sim2Scenario.uninfected[24].nic.mac1609_4 TotalLostPackets 0
scalar Sim2Scenario.uninfected[24].nic.mac1609_4 DroppedPacketsInMac 0
scalar Sim2Scenario.uninfected[24].nic.mac1609_4 TooLittleTime 0
scalar Sim2Scenario.uninfected[24].nic.mac1609_4 TimesIntoBackoff 0
scalar Sim2Scenario.uninfected[24].nic.mac1609_4 SlotsBackoff 0
scalar Sim2Scenario.uninfected[24].nic.mac1609_4 NumInternalContention 0
scalar Sim2Scenario.uninfected[24].nic.mac1609_4 totalBusyTime 0
scalar Sim2Scenario.uninfected[24].nic.mac1609_4 retriesExceeded:count 0
attr source org_car2x_veins_modules_mac_sigRetriesExceeded
scalar Sim2Scenario.uninfected[24].nic.mac1609_4 sentAcks:count 0
attr source org_car2x_veins_modules_mac_sigSentAck
scalar Sim2Scenario.uninfected[24].nic.mac1609_4 sentPackets:count 0
attr source org_car2x_veins_modules_mac_sigSentPacket
scalar Sim2Scenario.uninfected[24].nic.mac1609_4 collisions:count 0
attr source org_car2x_veins_modules_mac_sigCollision
scalar Sim2Scenario.uninfected[24].nic.mac1609_4 channelBusy:timeavg 0
attr source org_car2x_veins_modules_mac_sigChannelBusy
scalar Sim2Scenario.uninfected[24].veinsmobility startTime 25
scalar Sim2Scenario.uninfected[24].veinsmobility totalTime 48
scalar Sim2Scenario.uninfected[24].veinsmobility stopTime 73.000009385592
scalar Sim2Scenario.uninfected[24].veinsmobility minSpeed 3.5078264561924
scalar Sim2Scenario.uninfected[24].veinsmobility maxSpeed 13.887267420811
scalar Sim2Scenario.uninfected[24].veinsmobility totalDistance 561.81233182187
scalar Sim2Scenario.uninfected[24].veinsmobility totalCO2Emission 133.85719689626
scalar Sim2Scenario.uninfected[25].appl generatedWSMs 0
scalar Sim2Scenario.uninfected[25].appl receivedWSMs 0
scalar Sim2Scenario.uninfected[25].appl generatedBSMs 0
scalar Sim2Scenario.uninfected[25].appl receivedBSMs 0
scalar Sim2Scenario.uninfected[25].appl generatedWSAs 0
scalar Sim2Scenario.uninfected[25].appl receivedWSAs 0
scalar Sim2Scenario.uninfected[25].nic.phy80211p busyTime 0
scalar Sim2Scenario.uninfected[25].nic.mac1609_4 ReceivedUnicastPackets 0
scalar Sim2Scenario.uninfected[25].nic.mac1609_4 ReceivedBroadcasts 0
scalar Sim2Scenario.uninfected[25].nic.mac1609_4 SentPackets 0
scalar Sim2Scenario.uninfected[25].nic.mac1609_4 SentAcknowledgements 0
scalar Sim2Scenario.uninfected[25].nic.mac1609_4 RetriesExceeded 0
scalar Sim2Scenario.uninfected[25].nic.mac1609_4 SNIRLostPackets 0
scalar Sim2Scenario.uninfected[25].nic.mac1609_4 RXTXLostPackets 0
scalar Sim2Scenario.uninfected[25].nic.mac1609_4 TotalLostPackets 0
scalar Sim2Scenario.uninfected[25].nic.mac1609_4 DroppedPacketsInMac 0
scalar Sim2Scenario.uninfected[25].nic.mac1609_4 TooLittleTime 0
scalar Sim2Scenario.uninfected[25].nic.mac1609_4 TimesIntoBackoff 0
scalar Sim2Scenario.uninfected[25].nic.mac1609_4 SlotsBackoff 0
scalar Sim2Scenario.uninfected[25].nic.mac1609_4 NumInternalContention 0
scalar Sim2Scenario.uninfected[25].nic.mac1609_4 totalBusyTime 0
scalar Sim2Scenario.uninfected[25].nic.mac1609_4 retriesExceeded:count 0
attr source org_car2x_veins_modules_mac_sigRetriesExceeded
scalar Sim2Scenario.uninfected[25].nic.mac1609_4 sentAcks:count 0
attr source org_car2x_veins_modules_mac_sigSentAck
scalar Sim2Scenario.uninfected[25].nic.mac1609_4 sentPackets:count 0
attr source org_car2x_veins_modules_mac_sigSentPacket
scalar Sim2Scenario.uninfected[25].nic.mac1609_4 collisions:count 0
attr source org_car2x_veins_modules_mac_sigCollision
scalar Sim2Scenario.uninfected[25].nic.mac1609_4 channelBusy:timeavg 0
attr source org_car2x_veins_modules_mac_sigChannelBusy
scalar Sim2Scenario.uninfected[25].veinsmobility startTime 26
scalar Sim2Scenario.uninfected[25].veinsmobility totalTime 47
scalar Sim2Scenario.uninfected[25].veinsmobility stopTime 73.000009385592
scalar Sim2Scenario.uninfected[25].veinsmobility minSpeed 3.7817838354851
scalar Sim2Scenario.uninfected[25].veinsmobility maxSpeed 13.889716829786
scalar Sim2Scenario.uninfected[25].veinsmobility totalDistance 571.24457713721
scalar Sim2Scenario.uninfected[25].veinsmobility totalCO2Emission 132.92481025791
scalar Sim2Scenario.uninfected[26].appl generatedWSMs 0
scalar Sim2Scenario.uninfected[26].appl receivedWSMs 0
scalar Sim2Scenario.uninfected[26].appl generatedBSMs 0
scalar Sim2Scenario.uninfected[26].appl receivedBSMs 0
scalar Sim2Scenario.uninfected[26].appl generatedWSAs 0
scalar Sim2Scenario.uninfected[26].appl receivedWSAs 0
scalar Sim2Scenario.uninfected[26].nic.phy80211p busyTime 0
scalar Sim2Scenario.uninfected[26].nic.mac1609_4 ReceivedUnicastPackets 0
scalar Sim2Scenario.uninfected[26].nic.mac1609_4 ReceivedBroadcasts 0
scalar Sim2Scenario.uninfected[26].nic.mac1609_4 SentPackets 0
scalar Sim2Scenario.uninfected[26].nic.mac1609_4 SentAcknowledgements 0
scalar Sim2Scenario.uninfected[26].nic.mac1609_4 RetriesExceeded 0
scalar Sim2Scenario.uninfected[26].nic.mac1609_4 SNIRLostPackets 0
scalar Sim2Scenario.uninfected[26].nic.mac1609_4 RXTXLostPackets 0
scalar Sim2Scenario.uninfected[26].nic.mac1609_4 TotalLostPackets 0
scalar Sim2Scenario.uninfected[26].nic.mac1609_4 DroppedPacketsInMac 0
scalar Sim2Scenario.uninfected[26].nic.mac1609_4 TooLittleTime 0
scalar Sim2Scenario.uninfected[26].nic.mac1609_4 TimesIntoBackoff 0
scalar Sim2Scenario.uninfected[26].nic.mac1609_4 SlotsBackoff 0
scalar Sim2Scenario.uninfected[26].nic.mac1609_4 NumInternalContention 0
scalar Sim2Scenario.uninfected[26].nic.mac1609_4 totalBusyTime 0
scalar Sim2Scenario.uninfected[26].nic.mac1609_4 retriesExceeded:count 0
attr source org_car2x_veins_modules_mac_sigRetriesExceeded
scalar Sim2Scenario.uninfected[26].nic.mac1609_4 sentAcks:count 0
attr source org_car2x_veins_modules_mac_sigSentAck
scalar Sim2Scenario.uninfected[26].nic.mac1609_4 sentPackets:count 0
attr source org_car2x_veins_modules_mac_sigSentPacket
scalar Sim2Scenario.uninfected[26].nic.mac1609_4 collisions:count 0
attr source org_car2x_veins_modules_mac_sigCollision
scalar Sim2Scenario.uninfected[26].nic.mac1609_4 channelBusy:timeavg 0
attr source org_car2x_veins_modules_mac_sigChannelBusy
scalar Sim2Scenario.uninfected[26].veinsmobility startTime 27
scalar Sim2Scenario.uninfected[26].veinsmobility totalTime 46
scalar Sim2Scenario.uninfected[26].veinsmobility stopTime 73.000009385592
scalar Sim2Scenario.uninfected[26].veinsmobility minSpeed 3.5373828112096
scalar Sim2Scenario.uninfected[26].veinsmobility maxSpeed 13.887915906974
scalar Sim2Scenario.uninfected[26].veinsmobility totalDistance 514.50304140698
scalar Sim2Scenario.uninfected[26].veinsmobility totalCO2Emission 144.87527855117
scalar Sim2Scenario.uninfected[27].appl generatedWSMs 0
scalar Sim2Scenario.uninfected[27].appl receivedWSMs 0
scalar Sim2Scenario.uninfected[27].appl generatedBSMs 0
scalar Sim2Scenario.uninfected[27].appl receivedBSMs 0
scalar Sim2Scenario.uninfected[27].appl generatedWSAs 0
scalar Sim2Scenario.uninfected[27].appl receivedWSAs 0
scalar Sim2Scenario.uninfected[27].nic.phy80211p busyTime 0
scalar Sim2Scenario.uninfected[27].nic.mac1609_4 ReceivedUnicastPackets 0
scalar Sim2Scenario.uninfected[27].nic.mac1609_4 ReceivedBroadcasts 0
scalar Sim2Scenario.uninfected[27].nic.mac1609_4 SentPackets 0
scalar Sim2Scenario.uninfected[27].nic.mac1609_4 SentAcknowledgements 0
scalar Sim2Scenario.uninfected[27].nic.mac1609_4 RetriesExceeded 0
scalar Sim2Scenario.uninfected[27].nic.mac1609_4 SNIRLostPackets 0
scalar Sim2Scenario.uninfected[27].nic.mac1609_4 RXTXLostPackets 0
scalar Sim2Scenario.uninfected[27].nic.mac1609_4 TotalLostPackets 0
scalar Sim2Scenario.uninfected[27].nic.mac1609_4 DroppedPacketsInMac 0
scalar Sim2Scenario.uninfected[27].nic.mac1609_4 TooLittleTime 0
scalar Sim2Scenario.uninfected[27].nic.mac1609_4 TimesIntoBackoff 0
scalar Sim2Scenario.uninfected[27].nic.mac1609_4 SlotsBackoff 0
scalar Sim2Scenario.uninfected[27].nic.mac1609_4 NumInternalContention 0
scalar Sim2Scenario.uninfected[27].nic.mac1609_4 totalBusyTime 0
scalar Sim2Scenario.uninfected[27].nic.mac1609_4 retriesExceeded:count 0
attr source org_car2x_veins_modules_mac_sigRetriesExceeded
scalar Sim2Scenario.uninfected[27].nic.mac1609_4 sentAcks:count 0
attr source org_car2x_veins_modules_mac_sigSentAck
scalar Sim2Scenario.uninfected[27].nic.mac1609_4 sentPackets:count 0
attr source org_car2x_veins_modules_mac_sigSentPacket
scalar Sim2Scenario.uninfected[27].nic.mac1609_4 collisions:count 0
attr source org_car2x_veins_modules_mac_sigCollision
scalar Sim2Scenario.uninfected[27].nic.mac1609_4 channelBusy:timeavg 0
attr source org_car2x_veins_modules_mac_sigChannelBusy
scalar Sim2Scenario.uninfected[27].veinsmobility startTime 28
scalar Sim2Scenario.uninfected[27].veinsmobility totalTime 45
scalar Sim2Scenario.uninfected[27].veinsmobility stopTime 73.000009385592
scalar Sim2Scenario.uninfected[27].veinsmobility minSpeed 3.9616111245746
scalar Sim2Scenario.uninfected[27].veinsmobility maxSpeed 13.87603409678
scalar Sim2Scenario.uninfected[27].veinsmobility totalDistance 502.50694138698
scalar Sim2Scenario.uninfected[27].veinsmobility totalCO2Emission 143.83785413575
scalar Sim2Scenario.uninfected[28].appl generatedWSMs 0
scalar Sim2Scenario.uninfected[28].appl receivedWSMs 0
scalar Sim2Scenario.uninfected[28].appl generatedBSMs 0
scalar Sim2Scenario.uninfected[28].appl receivedBSMs 0
scalar Sim2Scenario.uninfected[28].appl generatedWSAs 0
scalar Sim2Scenario.uninfected[28].appl receivedWSAs 0
scalar Sim2Scenario.uninfected[28].nic.phy80211p busyTime 0
scalar Sim2Scenario.uninfected[28].nic.mac1609_4 ReceivedUnicastPackets 0
scalar Sim2Scenario.uninfected[28].nic.mac1609_4 ReceivedBroadcasts 0
scalar Sim2Scenario.uninfected[28].nic.mac1609_4 SentPackets 0
scalar Sim2Scenario.uninfected[28].nic.mac1609_4 SentAcknowledgements 0
scalar Sim2Scenario.uninfected[28].nic.mac1609_4 RetriesExceeded 0
scalar Sim2Scenario.uninfected[28].nic.mac1609_4 SNIRLostPackets 0
scalar Sim2Scenario.uninfected[28].nic.mac1609_4 RXTXLostPackets 0
scalar Sim2Scenario.uninfected[28].nic.mac1609_4 TotalLostPackets 0
scalar Sim2Scenario.uninfected[28].nic.mac1609_4 DroppedPacketsInMac 0
scalar Sim2Scenario.uninfected[28].nic.mac1609_4 TooLittleTime 0
scalar Sim2Scenario.uninfected[28].nic.mac1609_4 TimesIntoBackoff 0
scalar Sim2Scenario.uninfected[28].nic.mac1609_4 SlotsBackoff 0
scalar Sim2Scenario.uninfected[28].nic.mac1609_4 NumInternalContention 0
scalar Sim2Scenario.uninfected[28].nic.mac1609_4 totalBusyTime 0
scalar Sim2Scenario.uninfected[28].nic.mac1609_4 retriesExceeded:count 0
attr source org_car2x_veins_modules_mac_sigRetriesExceeded
scalar Sim2Scenario.uninfected[28].nic.mac1609_4 sentAcks:count 0
attr source org_car2x_veins_modules_mac_sigSentAck
scalar Sim2Scenario.uninfected[28].nic.mac1609_4 sentPackets:count 0
attr source org_car2x_veins_modules_mac_sigSentPacket
scalar Sim2Scenario.uninfected[28].nic.mac1609_4 collisions:count 0
attr source org_car2x_veins_modules_mac_sigCollision
scalar Sim2Scenario.uninfected[28].nic.mac1609_4 channelBusy:timeavg 0
attr source org_car2x_veins_modules_mac_sigChannelBusy
scalar Sim2Scenario.uninfected[28].veinsmobility startTime 29
scalar Sim2Scenario.uninfected[28].veinsmobility totalTime 44
scalar Sim2Scenario.uninfected[28].veinsmobility stopTime 73.000009385592
scalar Sim2Scenario.uninfected[28].veinsmobility minSpeed 0
scalar Sim2Scenario.uninfected[28].veinsmobility maxSpeed 13.884208573855
scalar Sim2Scenario.uninfected[28].veinsmobility totalDistance 361.3550956576
scalar Sim2Scenario.uninfected[28].veinsmobility totalCO2Emission 112.6910958364
scalar Sim2Scenario.uninfected[29].appl generatedWSMs 0
scalar Sim2Scenario.uninfected[29].appl receivedWSMs 0
scalar Sim2Scenario.uninfected[29].appl generatedBSMs 0
scalar Sim2Scenario.uninfected[29].appl receivedBSMs 0
scalar Sim2Scenario.uninfected[29].appl generatedWSAs 0
scalar Sim2Scenario.uninfected[29].appl receivedWSAs 0
scalar Sim2Scenario.uninfected[29].nic.phy80211p busyTime 0
scalar Sim2Scenario.uninfected[29].nic.mac1609_4 ReceivedUnicastPackets 0
scalar Sim2Scenario.uninfected[29].nic.mac1609_4 ReceivedBroadcasts 0
scalar Sim2Scenario.uninfected[29].nic.mac1609_4 SentPackets 0
scalar Sim2Scenario.uninfected[29].nic.mac1609_4 SentAcknowledgements 0
scalar Sim2Scenario.uninfected[29].nic.mac1609_4 RetriesExceeded 0
scalar Sim2Scenario.uninfected[29].nic.mac1609_4 SNIRLostPackets 0
scalar Sim2Scenario.uninfected[29].nic.mac1609_4 RXTXLostPackets 0
scalar Sim2Scenario.uninfected[29].nic.mac1609_4 TotalLostPackets 0
scalar Sim2Scenario.uninfected[29].nic.mac1609_4 DroppedPacketsInMac 0
scalar Sim2Scenario.uninfected[29].nic.mac1609_4 TooLittleTime 0
scalar Sim2Scenario.uninfected[29].nic.mac1609_4 TimesIntoBackoff 0
scalar Sim2Scenario.uninfected[29].nic.mac1609_4 SlotsBackoff 0
scalar Sim2Scenario.uninfected[29].nic.mac1609_4 NumInternalContention 0
scalar Sim2Scenario.uninfected[29].nic.mac1609_4 totalBusyTime 0
scalar Sim2Scenario.uninfected[29].nic.mac1609_4 retriesExceeded:count 0
attr source org_car2x_veins_modules_mac_sigRetriesExceeded
scalar Sim2Scenario.uninfected[29].nic.mac1609_4 sentAcks:count 0
attr source org_car2x_veins_modules_mac_sigSentAck
scalar Sim2Scenario.uninfected[29].nic.mac1609_4 sentPackets:count 0
attr source org_car2x_veins_modules_mac_sigSentPacket
scalar Sim2Scenario.uninfected[29].nic.mac1609_4 collisions:count 0
attr source org_car2x_veins_modules_mac_sigCollision
scalar Sim2Scenario.uninfected[29].nic.mac1609_4 channelBusy:timeavg 0
attr source org_car2x_veins_modules_mac_sigChannelBusy
scalar Sim2Scenario.uninfected[29].veinsmobility startTime 30
scalar Sim2Scenario.uninfected[29].veinsmobility totalTime 43
scalar Sim2Scenario.uninfected[29].veinsmobility stopTime 73.000009385592
scalar Sim2Scenario.uninfected[29].veinsmobility minSpeed 4.0905459865657
scalar Sim2Scenario.uninfected[29].veinsmobility maxSpeed 13.880654598561
scalar Sim2Scenario.uninfected[29].veinsmobility totalDistance 508.88940915393
scalar Sim2Scenario.uninfected[29].veinsmobility totalCO2Emission 123.61688738901
scalar Sim2Scenario.uninfected[30].appl generatedWSMs 0
scalar Sim2Scenario.uninfected[30].appl receivedWSMs 0
scalar Sim2Scenario.uninfected[30].appl generatedBSMs 0
scalar Sim2Scenario.uninfected[30].appl receivedBSMs 0
scalar Sim2Scenario.uninfected[30].appl generatedWSAs 0
scalar Sim2Scenario.uninfected[30].appl receivedWSAs 0
scalar Sim2Scenario.uninfected[30].nic.phy80211p busyTime 5.5238082894235e-006
scalar Sim2Scenario.uninfected[30].nic.mac1609_4 ReceivedUnicastPackets 0
scalar Sim2Scenario.uninfected[30].nic.mac1609_4 ReceivedBroadcasts 0
scalar Sim2Scenario.uninfected[30].nic.mac1609_4 SentPackets 0
scalar Sim2Scenario.uninfected[30].nic.mac1609_4 SentAcknowledgements 0
scalar Sim2Scenario.uninfected[30].nic.mac1609_4 RetriesExceeded 0
scalar Sim2Scenario.uninfected[30].nic.mac1609_4 SNIRLostPackets 0
scalar Sim2Scenario.uninfected[30].nic.mac1609_4 RXTXLostPackets 0
scalar Sim2Scenario.uninfected[30].nic.mac1609_4 TotalLostPackets 0
scalar Sim2Scenario.uninfected[30].nic.mac1609_4 DroppedPacketsInMac 0
scalar Sim2Scenario.uninfected[30].nic.mac1609_4 TooLittleTime 0
scalar Sim2Scenario.uninfected[30].nic.mac1609_4 TimesIntoBackoff 0
scalar Sim2Scenario.uninfected[30].nic.mac1609_4 SlotsBackoff 0
scalar Sim2Scenario.uninfected[30].nic.mac1609_4 NumInternalContention 0
scalar Sim2Scenario.uninfected[30].nic.mac1609_4 totalBusyTime 0
scalar Sim2Scenario.uninfected[30].nic.mac1609_4 retriesExceeded:count 0
attr source org_car2x_veins_modules_mac_sigRetriesExceeded
scalar Sim2Scenario.uninfected[30].nic.mac1609_4 sentAcks:count 0
attr source org_car2x_veins_modules_mac_sigSentAck
scalar Sim2Scenario.uninfected[30].nic.mac1609_4 sentPackets:count 0
attr source org_car2x_veins_modules_mac_sigSentPacket
scalar Sim2Scenario.uninfected[30].nic.mac1609_4 collisions:count 0
attr source org_car2x_veins_modules_mac_sigCollision
scalar Sim2Scenario.uninfected[30].nic.mac1609_4 channelBusy:timeavg 1.910332906438e-009
attr source org_car2x_veins_modules_mac_sigChannelBusy
scalar Sim2Scenario.uninfected[30].veinsmobility startTime 31
scalar Sim2Scenario.uninfected[30].veinsmobility totalTime 42
scalar Sim2Scenario.uninfected[30].veinsmobility stopTime 73.000009385592
scalar Sim2Scenario.uninfected[30].veinsmobility minSpeed 3.9872304839682
scalar Sim2Scenario.uninfected[30].veinsmobility maxSpeed 13.881401058221
scalar Sim2Scenario.uninfected[30].veinsmobility totalDistance 491.03060692127
scalar Sim2Scenario.uninfected[30].veinsmobility totalCO2Emission 121.33499368023
scalar Sim2Scenario.uninfected[31].appl generatedWSMs 0
scalar Sim2Scenario.uninfected[31].appl receivedWSMs 0
scalar Sim2Scenario.uninfected[31].appl generatedBSMs 0
scalar Sim2Scenario.uninfected[31].appl receivedBSMs 0
scalar Sim2Scenario.uninfected[31].appl generatedWSAs 0
scalar Sim2Scenario.uninfected[31].appl receivedWSAs 0
scalar Sim2Scenario.uninfected[31].nic.phy80211p busyTime 0
scalar Sim2Scenario.uninfected[31].nic.mac1609_4 ReceivedUnicastPackets 0
scalar Sim2Scenario.uninfected[31].nic.mac1609_4 ReceivedBroadcasts 0
scalar Sim2Scenario.uninfected[31].nic.mac1609_4 SentPackets 0
scalar Sim2Scenario.uninfected[31].nic.mac1609_4 SentAcknowledgements 0
scalar Sim2Scenario.uninfected[31].nic.mac1609_4 RetriesExceeded 0
scalar Sim2Scenario.uninfected[31].nic.mac1609_4 SNIRLostPackets 0
scalar Sim2Scenario.uninfected[31].nic.mac1609_4 RXTXLostPackets 0
scalar Sim2Scenario.uninfected[31].nic.mac1609_4 TotalLostPackets 0
scalar Sim2Scenario.uninfected[31].nic.mac1609_4 DroppedPacketsInMac 0
scalar Sim2Scenario.uninfected[31].nic.mac1609_4 TooLittleTime 0
scalar Sim2Scenario.uninfected[31].nic.mac1609_4 TimesIntoBackoff 0
scalar Sim2Scenario.uninfected[31].nic.mac1609_4 SlotsBackoff 0
scalar Sim2Scenario.uninfected[31].nic.mac1609_4 NumInternalContention 0
scalar Sim2Scenario.uninfected[31].nic.mac1609_4 totalBusyTime 0
scalar Sim2Scenario.uninfected[31].nic.mac1609_4 retriesExceeded:count 0
attr source org_car2x_veins_modules_mac_sigRetriesExceeded
scalar Sim2Scenario.uninfected[31].nic.mac1609_4 sentAcks:count 0
attr source org_car2x_veins_modules_mac_sigSentAck
scalar Sim2Scenario.uninfected[31].nic.mac1609_4 sentPackets:count 0
attr source org_car2x_veins_modules_mac_sigSentPacket
scalar Sim2Scenario.uninfected[31].nic.mac1609_4 collisions:count 0
attr source org_car2x_veins_modules_mac_sigCollision
scalar Sim2Scenario.uninfected[31].nic.mac1609_4 channelBusy:timeavg 0
attr source org_car2x_veins_modules_mac_sigChannelBusy
scalar Sim2Scenario.uninfected[31].veinsmobility startTime 32
scalar Sim2Scenario.uninfected[31].veinsmobility totalTime 41
scalar Sim2Scenario.uninfected[31].veinsmobility stopTime 73.000009385592
scalar Sim2Scenario.uninfected[31].veinsmobility minSpeed 3.3255649295485
scalar Sim2Scenario.uninfected[31].veinsmobility maxSpeed 13.878186564879
scalar Sim2Scenario.uninfected[31].veinsmobility totalDistance 464.54559579623
scalar Sim2Scenario.uninfected[31].veinsmobility totalCO2Emission 118.87329522416
scalar Sim2Scenario.uninfected[32].appl generatedWSMs 0
scalar Sim2Scenario.uninfected[32].appl receivedWSMs 0
scalar Sim2Scenario.uninfected[32].appl generatedBSMs 0
scalar Sim2Scenario.uninfected[32].appl receivedBSMs 0
scalar Sim2Scenario.uninfected[32].appl generatedWSAs 0
scalar Sim2Scenario.uninfected[32].appl receivedWSAs 0
scalar Sim2Scenario.uninfected[32].nic.phy80211p busyTime 0
scalar Sim2Scenario.uninfected[32].nic.mac1609_4 ReceivedUnicastPackets 0
scalar Sim2Scenario.uninfected[32].nic.mac1609_4 ReceivedBroadcasts 0
scalar Sim2Scenario.uninfected[32].nic.mac1609_4 SentPackets 0
scalar Sim2Scenario.uninfected[32].nic.mac1609_4 SentAcknowledgements 0
scalar Sim2Scenario.uninfected[32].nic.mac1609_4 RetriesExceeded 0
scalar Sim2Scenario.uninfected[32].nic.mac1609_4 SNIRLostPackets 0
scalar Sim2Scenario.uninfected[32].nic.mac1609_4 RXTXLostPackets 0
scalar Sim2Scenario.uninfected[32].nic.mac1609_4 TotalLostPackets 0
scalar Sim2Scenario.uninfected[32].nic.mac1609_4 DroppedPacketsInMac 0
scalar Sim2Scenario.uninfected[32].nic.mac1609_4 TooLittleTime 0
scalar Sim2Scenario.uninfected[32].nic.mac1609_4 TimesIntoBackoff 0
scalar Sim2Scenario.uninfected[32].nic.mac1609_4 SlotsBackoff 0
scalar Sim2Scenario.uninfected[32].nic.mac1609_4 NumInternalContention 0
scalar Sim2Scenario.uninfected[32].nic.mac1609_4 totalBusyTime 0
scalar Sim2Scenario.uninfected[32].nic.mac1609_4 retriesExceeded:count 0
attr source org_car2x_veins_modules_mac_sigRetriesExceeded
scalar Sim2Scenario.uninfected[32].nic.mac1609_4 sentAcks:count 0
attr source org_car2x_veins_modules_mac_sigSentAck
scalar Sim2Scenario.uninfected[32].nic.mac1609_4 sentPackets:count 0
attr source org_car2x_veins_modules_mac_sigSentPacket
scalar Sim2Scenario.uninfected[32].nic.mac1609_4 collisions:count 0
attr source org_car2x_veins_modules_mac_sigCollision
scalar Sim2Scenario.uninfected[32].nic.mac1609_4 channelBusy:timeavg 0
attr source org_car2x_veins_modules_mac_sigChannelBusy
scalar Sim2Scenario.uninfected[32].veinsmobility startTime 33
scalar Sim2Scenario.uninfected[32].veinsmobility totalTime 40
scalar Sim2Scenario.uninfected[32].veinsmobility stopTime 73.000009385592
scalar Sim2Scenario.uninfected[32].veinsmobility minSpeed 0.8722178822637
scalar Sim2Scenario.uninfected[32].veinsmobility maxSpeed 13.889567791808
scalar Sim2Scenario.uninfected[32].veinsmobility totalDistance 427.80068094436
scalar Sim2Scenario.uninfected[32].veinsmobility totalCO2Emission 116.89350395072
scalar Sim2Scenario.uninfected[33].appl generatedWSMs 0
scalar Sim2Scenario.uninfected[33].appl receivedWSMs 0
scalar Sim2Scenario.uninfected[33].appl generatedBSMs 0
scalar Sim2Scenario.uninfected[33].appl receivedBSMs 0
scalar Sim2Scenario.uninfected[33].appl generatedWSAs 0
scalar Sim2Scenario.uninfected[33].appl receivedWSAs 0
scalar Sim2Scenario.uninfected[33].nic.phy80211p busyTime 0
scalar Sim2Scenario.uninfected[33].nic.mac1609_4 ReceivedUnicastPackets 0
scalar Sim2Scenario.uninfected[33].nic.mac1609_4 ReceivedBroadcasts 0
scalar Sim2Scenario.uninfected[33].nic.mac1609_4 SentPackets 0
scalar Sim2Scenario.uninfected[33].nic.mac1609_4 SentAcknowledgements 0
scalar Sim2Scenario.uninfected[33].nic.mac1609_4 RetriesExceeded 0
scalar Sim2Scenario.uninfected[33].nic.mac1609_4 SNIRLostPackets 0
scalar Sim2Scenario.uninfected[33].nic.mac1609_4 RXTXLostPackets 0
scalar Sim2Scenario.uninfected[33].nic.mac1609_4 TotalLostPackets 0
scalar Sim2Scenario.uninfected[33].nic.mac1609_4 DroppedPacketsInMac 0
scalar Sim2Scenario.uninfected[33].nic.mac1609_4 TooLittleTime 0
scalar Sim2Scenario.uninfected[33].nic.mac1609_4 TimesIntoBackoff 0
scalar Sim2Scenario.uninfected[33].nic.mac1609_4 SlotsBackoff 0
scalar Sim2Scenario.uninfected[33].nic.mac1609_4 NumInternalContention 0
scalar Sim2Scenario.uninfected[33].nic.mac1609_4 totalBusyTime 0
scalar Sim2Scenario.uninfected[33].nic.mac1609_4 retriesExceeded:count 0
attr source org_car2x_veins_modules_mac_sigRetriesExceeded
scalar Sim2Scenario.uninfected[33].nic.mac1609_4 sentAcks:count 0
attr source org_car2x_veins_modules_mac_sigSentAck
scalar Sim2Scenario.uninfected[33].nic.mac1609_4 sentPackets:count 0
attr source org_car2x_veins_modules_mac_sigSentPacket
scalar Sim2Scenario.uninfected[33].nic.mac1609_4 collisions:count 0
attr source org_car2x_veins_modules_mac_sigCollision
scalar Sim2Scenario.uninfected[33].nic.mac1609_4 channelBusy:timeavg 0
attr source org_car2x_veins_modules_mac_sigChannelBusy
scalar Sim2Scenario.uninfected[33].veinsmobility startTime 34
scalar Sim2Scenario.uninfected[33].veinsmobility totalTime 39
scalar Sim2Scenario.uninfected[33].veinsmobility stopTime 73.000009385592
scalar Sim2Scenario.uninfected[33].veinsmobility minSpeed 4.1527076517452
scalar Sim2Scenario.uninfected[33].veinsmobility maxSpeed 13.885444280603
scalar Sim2Scenario.uninfected[33].veinsmobility totalDistance 506.11063921462
scalar Sim2Scenario.uninfected[33].veinsmobility totalCO2Emission 98.323688330428
scalar Sim2Scenario.uninfected[34].appl generatedWSMs 0
scalar Sim2Scenario.uninfected[34].appl receivedWSMs 0
scalar Sim2Scenario.uninfected[34].appl generatedBSMs 0
scalar Sim2Scenario.uninfected[34].appl receivedBSMs 0
scalar Sim2Scenario.uninfected[34].appl generatedWSAs 0
scalar Sim2Scenario.uninfected[34].appl receivedWSAs 0
scalar Sim2Scenario.uninfected[34].nic.phy80211p busyTime 0
scalar Sim2Scenario.uninfected[34].nic.mac1609_4 ReceivedUnicastPackets 0
scalar Sim2Scenario.uninfected[34].nic.mac1609_4 ReceivedBroadcasts 0
scalar Sim2Scenario.uninfected[34].nic.mac1609_4 SentPackets 0
scalar Sim2Scenario.uninfected[34].nic.mac1609_4 SentAcknowledgements 0
scalar Sim2Scenario.uninfected[34].nic.mac1609_4 RetriesExceeded 0
scalar Sim2Scenario.uninfected[34].nic.mac1609_4 SNIRLostPackets 0
scalar Sim2Scenario.uninfected[34].nic.mac1609_4 RXTXLostPackets 0
scalar Sim2Scenario.uninfected[34].nic.mac1609_4 TotalLostPackets 0
scalar Sim2Scenario.uninfected[34].nic.mac1609_4 DroppedPacketsInMac 0
scalar Sim2Scenario.uninfected[34].nic.mac1609_4 TooLittleTime 0
scalar Sim2Scenario.uninfected[34].nic.mac1609_4 TimesIntoBackoff 0
scalar Sim2Scenario.uninfected[34].nic.mac1609_4 SlotsBackoff 0
scalar Sim2Scenario.uninfected[34].nic.mac1609_4 NumInternalContention 0
scalar Sim2Scenario.uninfected[34].nic.mac1609_4 totalBusyTime 0
scalar Sim2Scenario.uninfected[34].nic.mac1609_4 retriesExceeded:count 0
attr source org_car2x_veins_modules_mac_sigRetriesExceeded
scalar Sim2Scenario.uninfected[34].nic.mac1609_4 sentAcks:count 0
attr source org_car2x_veins_modules_mac_sigSentAck
scalar Sim2Scenario.uninfected[34].nic.mac1609_4 sentPackets:count 0
attr source org_car2x_veins_modules_mac_sigSentPacket
scalar Sim2Scenario.uninfected[34].nic.mac1609_4 collisions:count 0
attr source org_car2x_veins_modules_mac_sigCollision
scalar Sim2Scenario.uninfected[34].nic.mac1609_4 channelBusy:timeavg 0
attr source org_car2x_veins_modules_mac_sigChannelBusy
scalar Sim2Scenario.uninfected[34].veinsmobility startTime 35
scalar Sim2Scenario.uninfected[34].veinsmobility totalTime 38
scalar Sim2Scenario.uninfected[34].veinsmobility stopTime 73.000009385592
scalar Sim2Scenario.uninfected[34].veinsmobility minSpeed 4.014909056375
scalar Sim2Scenario.uninfected[34].veinsmobility maxSpeed 13.889471060962
scalar Sim2Scenario.uninfected[34].veinsmobility totalDistance 459.33421530419
scalar Sim2Scenario.uninfected[34].veinsmobility totalCO2Emission 111.94943506829
scalar Sim2Scenario.uninfected[35].appl generatedWSMs 0
scalar Sim2Scenario.uninfected[35].appl receivedWSMs 0
scalar Sim2Scenario.uninfected[35].appl generatedBSMs 0
scalar Sim2Scenario.uninfected[35].appl receivedBSMs 0
scalar Sim2Scenario.uninfected[35].appl generatedWSAs 0
scalar Sim2Scenario.uninfected[35].appl receivedWSAs 0
scalar Sim2Scenario.uninfected[35].nic.phy80211p busyTime 0
scalar Sim2Scenario.uninfected[35].nic.mac1609_4 ReceivedUnicastPackets 0
scalar Sim2Scenario.uninfected[35].nic.mac1609_4 ReceivedBroadcasts 0
scalar Sim2Scenario.uninfected[35].nic.mac1609_4 SentPackets 0
scalar Sim2Scenario.uninfected[35].nic.mac1609_4 SentAcknowledgements 0
scalar Sim2Scenario.uninfected[35].nic.mac1609_4 RetriesExceeded 0
[...]
scalar Sim2Scenario.uninfected[66].veinsmobility totalTime 6
scalar Sim2Scenario.uninfected[66].veinsmobility stopTime 73.000009385592
scalar Sim2Scenario.uninfected[66].veinsmobility minSpeed 4.1395823418634
scalar Sim2Scenario.uninfected[66].veinsmobility maxSpeed 13.775032342838
scalar Sim2Scenario.uninfected[66].veinsmobility totalDistance 48.874649701308
scalar Sim2Scenario.uninfected[66].veinsmobility totalCO2Emission 31.576477178617
scalar Sim2Scenario.uninfected[67].appl generatedWSMs 0
scalar Sim2Scenario.uninfected[67].appl receivedWSMs 0
scalar Sim2Scenario.uninfected[67].appl generatedBSMs 0
scalar Sim2Scenario.uninfected[67].appl receivedBSMs 0
scalar Sim2Scenario.uninfected[67].appl generatedWSAs 0
scalar Sim2Scenario.uninfected[67].appl receivedWSAs 0
scalar Sim2Scenario.uninfected[67].nic.phy80211p busyTime 0
scalar Sim2Scenario.uninfected[67].nic.mac1609_4 ReceivedUnicastPackets 0
scalar Sim2Scenario.uninfected[67].nic.mac1609_4 ReceivedBroadcasts 0
scalar Sim2Scenario.uninfected[67].nic.mac1609_4 SentPackets 0
scalar Sim2Scenario.uninfected[67].nic.mac1609_4 SentAcknowledgements 0
scalar Sim2Scenario.uninfected[67].nic.mac1609_4 RetriesExceeded 0
scalar Sim2Scenario.uninfected[67].nic.mac1609_4 SNIRLostPackets 0
scalar Sim2Scenario.uninfected[67].nic.mac1609_4 RXTXLostPackets 0
scalar Sim2Scenario.uninfected[67].nic.mac1609_4 TotalLostPackets 0
scalar Sim2Scenario.uninfected[67].nic.mac1609_4 DroppedPacketsInMac 0
scalar Sim2Scenario.uninfected[67].nic.mac1609_4 TooLittleTime 0
scalar Sim2Scenario.uninfected[67].nic.mac1609_4 TimesIntoBackoff 0
scalar Sim2Scenario.uninfected[67].nic.mac1609_4 SlotsBackoff 0
scalar Sim2Scenario.uninfected[67].nic.mac1609_4 NumInternalContention 0
scalar Sim2Scenario.uninfected[67].nic.mac1609_4 totalBusyTime 0
scalar Sim2Scenario.uninfected[67].nic.mac1609_4 retriesExceeded:count 0
attr source org_car2x_veins_modules_mac_sigRetriesExceeded
scalar Sim2Scenario.uninfected[67].nic.mac1609_4 sentAcks:count 0
attr source org_car2x_veins_modules_mac_sigSentAck
scalar Sim2Scenario.uninfected[67].nic.mac1609_4 sentPackets:count 0
attr source org_car2x_veins_modules_mac_sigSentPacket
scalar Sim2Scenario.uninfected[67].nic.mac1609_4 collisions:count 0
attr source org_car2x_veins_modules_mac_sigCollision
scalar Sim2Scenario.uninfected[67].nic.mac1609_4 channelBusy:timeavg 0
attr source org_car2x_veins_modules_mac_sigChannelBusy
scalar Sim2Scenario.uninfected[67].veinsmobility startTime 68
scalar Sim2Scenario.uninfected[67].veinsmobility totalTime 5
scalar Sim2Scenario.uninfected[67].veinsmobility stopTime 73.000009385592
scalar Sim2Scenario.uninfected[67].veinsmobility minSpeed 4.1921787767177
scalar Sim2Scenario.uninfected[67].veinsmobility maxSpeed 11.879355389692
scalar Sim2Scenario.uninfected[67].veinsmobility totalDistance 35.981041633411
scalar Sim2Scenario.uninfected[67].veinsmobility totalCO2Emission 23.175540085116
scalar Sim2Scenario.uninfected[68].appl generatedWSMs 0
scalar Sim2Scenario.uninfected[68].appl receivedWSMs 0
scalar Sim2Scenario.uninfected[68].appl generatedBSMs 0
scalar Sim2Scenario.uninfected[68].appl receivedBSMs 0
scalar Sim2Scenario.uninfected[68].appl generatedWSAs 0
scalar Sim2Scenario.uninfected[68].appl receivedWSAs 0
scalar Sim2Scenario.uninfected[68].nic.phy80211p busyTime 0
scalar Sim2Scenario.uninfected[68].nic.mac1609_4 ReceivedUnicastPackets 0
scalar Sim2Scenario.uninfected[68].nic.mac1609_4 ReceivedBroadcasts 0
scalar Sim2Scenario.uninfected[68].nic.mac1609_4 SentPackets 0
scalar Sim2Scenario.uninfected[68].nic.mac1609_4 SentAcknowledgements 0
scalar Sim2Scenario.uninfected[68].nic.mac1609_4 RetriesExceeded 0
scalar Sim2Scenario.uninfected[68].nic.mac1609_4 SNIRLostPackets 0
scalar Sim2Scenario.uninfected[68].nic.mac1609_4 RXTXLostPackets 0
scalar Sim2Scenario.uninfected[68].nic.mac1609_4 TotalLostPackets 0
scalar Sim2Scenario.uninfected[68].nic.mac1609_4 DroppedPacketsInMac 0
scalar Sim2Scenario.uninfected[68].nic.mac1609_4 TooLittleTime 0
scalar Sim2Scenario.uninfected[68].nic.mac1609_4 TimesIntoBackoff 0
scalar Sim2Scenario.uninfected[68].nic.mac1609_4 SlotsBackoff 0
scalar Sim2Scenario.uninfected[68].nic.mac1609_4 NumInternalContention 0
scalar Sim2Scenario.uninfected[68].nic.mac1609_4 totalBusyTime 0
scalar Sim2Scenario.uninfected[68].nic.mac1609_4 retriesExceeded:count 0
attr source org_car2x_veins_modules_mac_sigRetriesExceeded
scalar Sim2Scenario.uninfected[68].nic.mac1609_4 sentAcks:count 0
attr source org_car2x_veins_modules_mac_sigSentAck
scalar Sim2Scenario.uninfected[68].nic.mac1609_4 sentPackets:count 0
attr source org_car2x_veins_modules_mac_sigSentPacket
scalar Sim2Scenario.uninfected[68].nic.mac1609_4 collisions:count 0
attr source org_car2x_veins_modules_mac_sigCollision
scalar Sim2Scenario.uninfected[68].nic.mac1609_4 channelBusy:timeavg 0
attr source org_car2x_veins_modules_mac_sigChannelBusy
scalar Sim2Scenario.uninfected[68].veinsmobility startTime 69
scalar Sim2Scenario.uninfected[68].veinsmobility totalTime 4
scalar Sim2Scenario.uninfected[68].veinsmobility stopTime 73.000009385592
scalar Sim2Scenario.uninfected[68].veinsmobility minSpeed 3.9737090226986
scalar Sim2Scenario.uninfected[68].veinsmobility maxSpeed 9.6332287827322
scalar Sim2Scenario.uninfected[68].veinsmobility totalDistance 24.013073349826
scalar Sim2Scenario.uninfected[68].veinsmobility totalCO2Emission 15.168243405798
scalar Sim2Scenario.exploited[69].appl generatedWSMs 0
scalar Sim2Scenario.exploited[69].appl receivedWSMs 0
scalar Sim2Scenario.exploited[69].appl generatedBSMs 0
scalar Sim2Scenario.exploited[69].appl receivedBSMs 0
scalar Sim2Scenario.exploited[69].appl generatedWSAs 0
scalar Sim2Scenario.exploited[69].appl receivedWSAs 0
scalar Sim2Scenario.exploited[69].nic.phy80211p busyTime 0
scalar Sim2Scenario.exploited[69].nic.mac1609_4 ReceivedUnicastPackets 0
scalar Sim2Scenario.exploited[69].nic.mac1609_4 ReceivedBroadcasts 0
scalar Sim2Scenario.exploited[69].nic.mac1609_4 SentPackets 0
scalar Sim2Scenario.exploited[69].nic.mac1609_4 SentAcknowledgements 0
scalar Sim2Scenario.exploited[69].nic.mac1609_4 RetriesExceeded 0
scalar Sim2Scenario.exploited[69].nic.mac1609_4 SNIRLostPackets 0
scalar Sim2Scenario.exploited[69].nic.mac1609_4 RXTXLostPackets 0
scalar Sim2Scenario.exploited[69].nic.mac1609_4 TotalLostPackets 0
scalar Sim2Scenario.exploited[69].nic.mac1609_4 DroppedPacketsInMac 0
scalar Sim2Scenario.exploited[69].nic.mac1609_4 TooLittleTime 0
scalar Sim2Scenario.exploited[69].nic.mac1609_4 TimesIntoBackoff 0
scalar Sim2Scenario.exploited[69].nic.mac1609_4 SlotsBackoff 0
scalar Sim2Scenario.exploited[69].nic.mac1609_4 NumInternalContention 0
scalar Sim2Scenario.exploited[69].nic.mac1609_4 totalBusyTime 0
scalar Sim2Scenario.exploited[69].nic.mac1609_4 retriesExceeded:count 0
attr source org_car2x_veins_modules_mac_sigRetriesExceeded
scalar Sim2Scenario.exploited[69].nic.mac1609_4 sentAcks:count 0
attr source org_car2x_veins_modules_mac_sigSentAck
scalar Sim2Scenario.exploited[69].nic.mac1609_4 sentPackets:count 0
attr source org_car2x_veins_modules_mac_sigSentPacket
scalar Sim2Scenario.exploited[69].nic.mac1609_4 collisions:count 0
attr source org_car2x_veins_modules_mac_sigCollision
scalar Sim2Scenario.exploited[69].nic.mac1609_4 channelBusy:timeavg 0
attr source org_car2x_veins_modules_mac_sigChannelBusy
scalar Sim2Scenario.exploited[69].veinsmobility startTime 70
scalar Sim2Scenario.exploited[69].veinsmobility totalTime 3
scalar Sim2Scenario.exploited[69].veinsmobility stopTime 73.000009385592
scalar Sim2Scenario.exploited[69].veinsmobility minSpeed 4.1371704788945
scalar Sim2Scenario.exploited[69].veinsmobility maxSpeed 8.0638220818663
scalar Sim2Scenario.exploited[69].veinsmobility totalDistance 15.709989105495
scalar Sim2Scenario.exploited[69].veinsmobility totalCO2Emission 9.6732265511596
scalar Sim2Scenario.uninfected[7].appl generatedWSMs 0
scalar Sim2Scenario.uninfected[7].appl receivedWSMs 0
scalar Sim2Scenario.uninfected[7].appl generatedBSMs 0
scalar Sim2Scenario.uninfected[7].appl receivedBSMs 0
scalar Sim2Scenario.uninfected[7].appl generatedWSAs 0
scalar Sim2Scenario.uninfected[7].appl receivedWSAs 0
scalar Sim2Scenario.uninfected[7].nic.phy80211p busyTime 0
scalar Sim2Scenario.uninfected[7].nic.mac1609_4 ReceivedUnicastPackets 0
scalar Sim2Scenario.uninfected[7].nic.mac1609_4 ReceivedBroadcasts 0
scalar Sim2Scenario.uninfected[7].nic.mac1609_4 SentPackets 0
scalar Sim2Scenario.uninfected[7].nic.mac1609_4 SentAcknowledgements 0
scalar Sim2Scenario.uninfected[7].nic.mac1609_4 RetriesExceeded 0
scalar Sim2Scenario.uninfected[7].nic.mac1609_4 SNIRLostPackets 0
scalar Sim2Scenario.uninfected[7].nic.mac1609_4 RXTXLostPackets 0
scalar Sim2Scenario.uninfected[7].nic.mac1609_4 TotalLostPackets 0
scalar Sim2Scenario.uninfected[7].nic.mac1609_4 DroppedPacketsInMac 0
scalar Sim2Scenario.uninfected[7].nic.mac1609_4 TooLittleTime 0
scalar Sim2Scenario.uninfected[7].nic.mac1609_4 TimesIntoBackoff 0
scalar Sim2Scenario.uninfected[7].nic.mac1609_4 SlotsBackoff 0
scalar Sim2Scenario.uninfected[7].nic.mac1609_4 NumInternalContention 0
scalar Sim2Scenario.uninfected[7].nic.mac1609_4 totalBusyTime 0
scalar Sim2Scenario.uninfected[7].nic.mac1609_4 retriesExceeded:count 0
attr source org_car2x_veins_modules_mac_sigRetriesExceeded
scalar Sim2Scenario.uninfected[7].nic.mac1609_4 sentAcks:count 0
attr source org_car2x_veins_modules_mac_sigSentAck
scalar Sim2Scenario.uninfected[7].nic.mac1609_4 sentPackets:count 0
attr source org_car2x_veins_modules_mac_sigSentPacket
scalar Sim2Scenario.uninfected[7].nic.mac1609_4 collisions:count 0
attr source org_car2x_veins_modules_mac_sigCollision
scalar Sim2Scenario.uninfected[7].nic.mac1609_4 channelBusy:timeavg 0
attr source org_car2x_veins_modules_mac_sigChannelBusy
scalar Sim2Scenario.uninfected[7].veinsmobility startTime 8
scalar Sim2Scenario.uninfected[7].veinsmobility totalTime 65
scalar Sim2Scenario.uninfected[7].veinsmobility stopTime 73.000009385592
scalar Sim2Scenario.uninfected[7].veinsmobility minSpeed 3.6270036264462
scalar Sim2Scenario.uninfected[7].veinsmobility maxSpeed 13.877270556565
scalar Sim2Scenario.uninfected[7].veinsmobility totalDistance 727.92981103228
scalar Sim2Scenario.uninfected[7].veinsmobility totalCO2Emission 196.20581882226
scalar Sim2Scenario.uninfected[70].appl generatedWSMs 0
scalar Sim2Scenario.uninfected[70].appl receivedWSMs 0
scalar Sim2Scenario.uninfected[70].appl generatedBSMs 0
scalar Sim2Scenario.uninfected[70].appl receivedBSMs 0
scalar Sim2Scenario.uninfected[70].appl generatedWSAs 0
scalar Sim2Scenario.uninfected[70].appl receivedWSAs 0
scalar Sim2Scenario.uninfected[70].nic.phy80211p busyTime 0
scalar Sim2Scenario.uninfected[70].nic.mac1609_4 ReceivedUnicastPackets 0
scalar Sim2Scenario.uninfected[70].nic.mac1609_4 ReceivedBroadcasts 0
scalar Sim2Scenario.uninfected[70].nic.mac1609_4 SentPackets 0
scalar Sim2Scenario.uninfected[70].nic.mac1609_4 SentAcknowledgements 0
scalar Sim2Scenario.uninfected[70].nic.mac1609_4 RetriesExceeded 0
scalar Sim2Scenario.uninfected[70].nic.mac1609_4 SNIRLostPackets 0
scalar Sim2Scenario.uninfected[70].nic.mac1609_4 RXTXLostPackets 0
scalar Sim2Scenario.uninfected[70].nic.mac1609_4 TotalLostPackets 0
scalar Sim2Scenario.uninfected[70].nic.mac1609_4 DroppedPacketsInMac 0
scalar Sim2Scenario.uninfected[70].nic.mac1609_4 TooLittleTime 0
scalar Sim2Scenario.uninfected[70].nic.mac1609_4 TimesIntoBackoff 0
scalar Sim2Scenario.uninfected[70].nic.mac1609_4 SlotsBackoff 0
scalar Sim2Scenario.uninfected[70].nic.mac1609_4 NumInternalContention 0
scalar Sim2Scenario.uninfected[70].nic.mac1609_4 totalBusyTime 0
scalar Sim2Scenario.uninfected[70].nic.mac1609_4 retriesExceeded:count 0
attr source org_car2x_veins_modules_mac_sigRetriesExceeded
scalar Sim2Scenario.uninfected[70].nic.mac1609_4 sentAcks:count 0
attr source org_car2x_veins_modules_mac_sigSentAck
scalar Sim2Scenario.uninfected[70].nic.mac1609_4 sentPackets:count 0
attr source org_car2x_veins_modules_mac_sigSentPacket
scalar Sim2Scenario.uninfected[70].nic.mac1609_4 collisions:count 0
attr source org_car2x_veins_modules_mac_sigCollision
scalar Sim2Scenario.uninfected[70].nic.mac1609_4 channelBusy:timeavg 0
attr source org_car2x_veins_modules_mac_sigChannelBusy
scalar Sim2Scenario.uninfected[70].veinsmobility startTime 72
scalar Sim2Scenario.uninfected[70].veinsmobility totalTime 1
scalar Sim2Scenario.uninfected[70].veinsmobility stopTime 73.000009385592
scalar Sim2Scenario.uninfected[70].veinsmobility minSpeed 2.8293971504486
scalar Sim2Scenario.uninfected[70].veinsmobility maxSpeed 2.8293971504486
scalar Sim2Scenario.uninfected[70].veinsmobility totalDistance 1.9571195707268
scalar Sim2Scenario.uninfected[70].veinsmobility totalCO2Emission 0
scalar Sim2Scenario.uninfected[71].appl generatedWSMs 0
scalar Sim2Scenario.uninfected[71].appl receivedWSMs 0
scalar Sim2Scenario.uninfected[71].appl generatedBSMs 0
scalar Sim2Scenario.uninfected[71].appl receivedBSMs 0
scalar Sim2Scenario.uninfected[71].appl generatedWSAs 0
scalar Sim2Scenario.uninfected[71].appl receivedWSAs 0
scalar Sim2Scenario.uninfected[71].nic.phy80211p busyTime 0
scalar Sim2Scenario.uninfected[71].nic.mac1609_4 ReceivedUnicastPackets 0
scalar Sim2Scenario.uninfected[71].nic.mac1609_4 ReceivedBroadcasts 0
scalar Sim2Scenario.uninfected[71].nic.mac1609_4 SentPackets 0
scalar Sim2Scenario.uninfected[71].nic.mac1609_4 SentAcknowledgements 0
scalar Sim2Scenario.uninfected[71].nic.mac1609_4 RetriesExceeded 0
scalar Sim2Scenario.uninfected[71].nic.mac1609_4 SNIRLostPackets 0
scalar Sim2Scenario.uninfected[71].nic.mac1609_4 RXTXLostPackets 0
scalar Sim2Scenario.uninfected[71].nic.mac1609_4 TotalLostPackets 0
scalar Sim2Scenario.uninfected[71].nic.mac1609_4 DroppedPacketsInMac 0
scalar Sim2Scenario.uninfected[71].nic.mac1609_4 TooLittleTime 0
scalar Sim2Scenario.uninfected[71].nic.mac1609_4 TimesIntoBackoff 0
scalar Sim2Scenario.uninfected[71].nic.mac1609_4 SlotsBackoff 0
scalar Sim2Scenario.uninfected[71].nic.mac1609_4 NumInternalContention 0
scalar Sim2Scenario.uninfected[71].nic.mac1609_4 totalBusyTime 0
scalar Sim2Scenario.uninfected[71].nic.mac1609_4 retriesExceeded:count 0
attr source org_car2x_veins_modules_mac_sigRetriesExceeded
scalar Sim2Scenario.uninfected[71].nic.mac1609_4 sentAcks:count 0
attr source org_car2x_veins_modules_mac_sigSentAck
scalar Sim2Scenario.uninfected[71].nic.mac1609_4 sentPackets:count 0
attr source org_car2x_veins_modules_mac_sigSentPacket
scalar Sim2Scenario.uninfected[71].nic.mac1609_4 collisions:count 0
attr source org_car2x_veins_modules_mac_sigCollision
scalar Sim2Scenario.uninfected[71].nic.mac1609_4 channelBusy:timeavg 0
attr source org_car2x_veins_modules_mac_sigChannelBusy
scalar Sim2Scenario.uninfected[71].veinsmobility startTime 72
scalar Sim2Scenario.uninfected[71].veinsmobility totalTime 1
scalar Sim2Scenario.uninfected[71].veinsmobility stopTime 73.000009385592
scalar Sim2Scenario.uninfected[71].veinsmobility minSpeed 4.139936522817
scalar Sim2Scenario.uninfected[71].veinsmobility maxSpeed 4.139936522817
scalar Sim2Scenario.uninfected[71].veinsmobility totalDistance 3.1748511340779
scalar Sim2Scenario.uninfected[71].veinsmobility totalCO2Emission 0
scalar Sim2Scenario.uninfected[72].appl generatedWSMs 0
scalar Sim2Scenario.uninfected[72].appl receivedWSMs 0
scalar Sim2Scenario.uninfected[72].appl generatedBSMs 0
scalar Sim2Scenario.uninfected[72].appl receivedBSMs 0
scalar Sim2Scenario.uninfected[72].appl generatedWSAs 0
scalar Sim2Scenario.uninfected[72].appl receivedWSAs 0
scalar Sim2Scenario.uninfected[72].nic.phy80211p busyTime 0
scalar Sim2Scenario.uninfected[72].nic.mac1609_4 ReceivedUnicastPackets 0
scalar Sim2Scenario.uninfected[72].nic.mac1609_4 ReceivedBroadcasts 0
scalar Sim2Scenario.uninfected[72].nic.mac1609_4 SentPackets 0
scalar Sim2Scenario.uninfected[72].nic.mac1609_4 SentAcknowledgements 0
scalar Sim2Scenario.uninfected[72].nic.mac1609_4 RetriesExceeded 0
scalar Sim2Scenario.uninfected[72].nic.mac1609_4 SNIRLostPackets 0
scalar Sim2Scenario.uninfected[72].nic.mac1609_4 RXTXLostPackets 0
scalar Sim2Scenario.uninfected[72].nic.mac1609_4 TotalLostPackets 0
scalar Sim2Scenario.uninfected[72].nic.mac1609_4 DroppedPacketsInMac 0
scalar Sim2Scenario.uninfected[72].nic.mac1609_4 TooLittleTime 0
scalar Sim2Scenario.uninfected[72].nic.mac1609_4 TimesIntoBackoff 0
scalar Sim2Scenario.uninfected[72].nic.mac1609_4 SlotsBackoff 0
scalar Sim2Scenario.uninfected[72].nic.mac1609_4 NumInternalContention 0
scalar Sim2Scenario.uninfected[72].nic.mac1609_4 totalBusyTime 0
scalar Sim2Scenario.uninfected[72].nic.mac1609_4 retriesExceeded:count 0
attr source org_car2x_veins_modules_mac_sigRetriesExceeded
scalar Sim2Scenario.uninfected[72].nic.mac1609_4 sentAcks:count 0
attr source org_car2x_veins_modules_mac_sigSentAck
scalar Sim2Scenario.uninfected[72].nic.mac1609_4 sentPackets:count 0
attr source org_car2x_veins_modules_mac_sigSentPacket
scalar Sim2Scenario.uninfected[72].nic.mac1609_4 collisions:count 0
attr source org_car2x_veins_modules_mac_sigCollision
scalar Sim2Scenario.uninfected[72].nic.mac1609_4 channelBusy:timeavg 0
attr source org_car2x_veins_modules_mac_sigChannelBusy
scalar Sim2Scenario.uninfected[72].veinsmobility startTime 73
scalar Sim2Scenario.uninfected[72].veinsmobility totalTime 0
scalar Sim2Scenario.uninfected[72].veinsmobility stopTime 73.000009385592
scalar Sim2Scenario.uninfected[72].veinsmobility totalDistance 0
scalar Sim2Scenario.uninfected[72].veinsmobility totalCO2Emission 0
scalar Sim2Scenario.uninfected[8].appl generatedWSMs 0
scalar Sim2Scenario.uninfected[8].appl receivedWSMs 0
scalar Sim2Scenario.uninfected[8].appl generatedBSMs 0
scalar Sim2Scenario.uninfected[8].appl receivedBSMs 0
scalar Sim2Scenario.uninfected[8].appl generatedWSAs 0
scalar Sim2Scenario.uninfected[8].appl receivedWSAs 0
scalar Sim2Scenario.uninfected[8].nic.phy80211p busyTime 0
scalar Sim2Scenario.uninfected[8].nic.mac1609_4 ReceivedUnicastPackets 0
scalar Sim2Scenario.uninfected[8].nic.mac1609_4 ReceivedBroadcasts 0
scalar Sim2Scenario.uninfected[8].nic.mac1609_4 SentPackets 0
scalar Sim2Scenario.uninfected[8].nic.mac1609_4 SentAcknowledgements 0
scalar Sim2Scenario.uninfected[8].nic.mac1609_4 RetriesExceeded 0
scalar Sim2Scenario.uninfected[8].nic.mac1609_4 SNIRLostPackets 0
scalar Sim2Scenario.uninfected[8].nic.mac1609_4 RXTXLostPackets 0
scalar Sim2Scenario.uninfected[8].nic.mac1609_4 TotalLostPackets 0
scalar Sim2Scenario.uninfected[8].nic.mac1609_4 DroppedPacketsInMac 0
scalar Sim2Scenario.uninfected[8].nic.mac1609_4 TooLittleTime 0
scalar Sim2Scenario.uninfected[8].nic.mac1609_4 TimesIntoBackoff 0
scalar Sim2Scenario.uninfected[8].nic.mac1609_4 SlotsBackoff 0
scalar Sim2Scenario.uninfected[8].nic.mac1609_4 NumInternalContention 0
scalar Sim2Scenario.uninfected[8].nic.mac1609_4 totalBusyTime 0
scalar Sim2Scenario.uninfected[8].nic.mac1609_4 retriesExceeded:count 0
attr source org_car2x_veins_modules_mac_sigRetriesExceeded
scalar Sim2Scenario.uninfected[8].nic.mac1609_4 sentAcks:count 0
attr source org_car2x_veins_modules_mac_sigSentAck
scalar Sim2Scenario.uninfected[8].nic.mac1609_4 sentPackets:count 0
attr source org_car2x_veins_modules_mac_sigSentPacket
scalar Sim2Scenario.uninfected[8].nic.mac1609_4 collisions:count 0
attr source org_car2x_veins_modules_mac_sigCollision
scalar Sim2Scenario.uninfected[8].nic.mac1609_4 channelBusy:timeavg 0
attr source org_car2x_veins_modules_mac_sigChannelBusy
scalar Sim2Scenario.uninfected[8].veinsmobility startTime 9
scalar Sim2Scenario.uninfected[8].veinsmobility totalTime 64
scalar Sim2Scenario.uninfected[8].veinsmobility stopTime 73.000009385592
scalar Sim2Scenario.uninfected[8].veinsmobility minSpeed 3.5946160302825
scalar Sim2Scenario.uninfected[8].veinsmobility maxSpeed 13.889501384608
scalar Sim2Scenario.uninfected[8].veinsmobility totalDistance 743.80711625023
scalar Sim2Scenario.uninfected[8].veinsmobility totalCO2Emission 182.59757227376
scalar Sim2Scenario.manager roiArea 0

