file 54094716 1627534063                                        
version 2
run General-0-20210729-01:36:26-17800
attr configname General
attr datetime 20210729-01:36:26
attr experiment General
attr inifile omnetpp.ini
attr iterationvars ""
attr iterationvarsf ""
attr measurement ""
attr network Sim2Scenario
attr processid 17800
attr repetition 0
attr replication #0
attr resultdir results
attr runnumber 0
attr seedset 0
param *.playgroundSizeX 1000m
param *.playgroundSizeY 1000m
param *.playgroundSizeZ 50m
param *.manager.moduleType "\"exploited=org.car2x.veins.nodes.Car *=org.car2x.veins.nodes.Car\""
param *.manager.moduleName "\"exploited=exploited *=uninfected\""
param *.manager.updateInterval 1s
param *.manager.host "\"localhost\""
param *.manager.port 9999
param *.manager.autoShutdown true
param *.manager.launchConfig "xmldoc(\"sim2.launchd.xml\")"
param *.connectionManager.sendDirect true
param *.connectionManager.maxInterfDist 300m
param *.connectionManager.drawMaxIntfDist false
param *.**.nic.mac1609_4.useServiceChannel false
param *.**.nic.mac1609_4.txPower 20mW
param *.**.nic.mac1609_4.bitrate 6Mbps
param *.**.nic.phy80211p.minPowerLevel -110dBm
param *.**.nic.phy80211p.useNoiseFloor true
param *.**.nic.phy80211p.noiseFloor -98dBm
param *.**.nic.phy80211p.decider "xmldoc(\"config.xml\")"
param *.**.nic.phy80211p.analogueModels "xmldoc(\"config.xml\")"
param *.**.nic.phy80211p.usePropagationDelay true
param *.**.nic.phy80211p.antenna "xmldoc(\"antenna.xml\", \"/root/Antenna[@id='monopole']\")"
param *.uninfected[*].nic.phy80211p.antennaOffsetY "0 m"
param *.uninfected[*].nic.phy80211p.antennaOffsetZ "1.895 m"
param *.exploited[*].nic.phy80211p.antennaOffsetY "0 m"
param *.exploited[*].nic.phy80211p.antennaOffsetZ "1.895 m"
param *.uninfected[*].applType "\"P2PCongestionProtocol\""
param *.uninfected[*].appl.headerLength "80 bit"
param *.uninfected[*].appl.sendBeacons false
param *.uninfected[*].appl.dataOnSch false
param *.uninfected[*].appl.beaconInterval 0.5s
param *.exploited[*].applType "\"P2PBotnetProtocol\""
param *.exploited[*].appl.headerLength "80 bit"
param *.exploited[*].appl.sendBeacons false
param *.exploited[*].appl.dataOnSch false
param *.exploited[*].appl.beaconInterval 1s
param *.uninfected[*].veinsmobility.x 0
param *.uninfected[*].veinsmobility.y 0
param *.uninfected[*].veinsmobility.z 0
param *.exploited[*].veinsmobility.x 0
param *.exploited[*].veinsmobility.y 0
param *.exploited[*].veinsmobility.z 0

vector 0 Sim2Scenario.uninfected[0].veinsmobility posx ETV
vector 1 Sim2Scenario.uninfected[0].veinsmobility posy ETV
vector 2 Sim2Scenario.uninfected[1].veinsmobility posx ETV
vector 3 Sim2Scenario.uninfected[1].veinsmobility posy ETV
vector 4 Sim2Scenario.uninfected[2].veinsmobility posx ETV
vector 5 Sim2Scenario.uninfected[2].veinsmobility posy ETV
vector 6 Sim2Scenario.uninfected[0].veinsmobility speed ETV
vector 7 Sim2Scenario.uninfected[1].veinsmobility speed ETV
vector 8 Sim2Scenario.uninfected[3].veinsmobility posx ETV
vector 9 Sim2Scenario.uninfected[3].veinsmobility posy ETV
vector 10 Sim2Scenario.uninfected[0].veinsmobility acceleration ETV
vector 11 Sim2Scenario.uninfected[0].veinsmobility co2emission ETV
vector 12 Sim2Scenario.uninfected[1].veinsmobility acceleration ETV
vector 13 Sim2Scenario.uninfected[1].veinsmobility co2emission ETV
vector 14 Sim2Scenario.uninfected[2].veinsmobility speed ETV
vector 15 Sim2Scenario.uninfected[4].veinsmobility posx ETV
vector 16 Sim2Scenario.uninfected[4].veinsmobility posy ETV
vector 17 Sim2Scenario.uninfected[2].veinsmobility acceleration ETV
vector 18 Sim2Scenario.uninfected[2].veinsmobility co2emission ETV
vector 19 Sim2Scenario.uninfected[3].veinsmobility speed ETV
vector 20 Sim2Scenario.uninfected[5].veinsmobility posx ETV
vector 21 Sim2Scenario.uninfected[5].veinsmobility posy ETV
vector 22 Sim2Scenario.uninfected[6].veinsmobility posx ETV
vector 23 Sim2Scenario.uninfected[6].veinsmobility posy ETV
vector 24 Sim2Scenario.uninfected[3].veinsmobility acceleration ETV
vector 25 Sim2Scenario.uninfected[3].veinsmobility co2emission ETV
vector 26 Sim2Scenario.uninfected[4].veinsmobility speed ETV
vector 27 Sim2Scenario.uninfected[7].veinsmobility posx ETV
vector 28 Sim2Scenario.uninfected[7].veinsmobility posy ETV
vector 29 Sim2Scenario.uninfected[4].veinsmobility acceleration ETV
vector 30 Sim2Scenario.uninfected[4].veinsmobility co2emission ETV
vector 31 Sim2Scenario.uninfected[5].veinsmobility speed ETV
vector 32 Sim2Scenario.uninfected[6].veinsmobility speed ETV
vector 33 Sim2Scenario.uninfected[8].veinsmobility posx ETV
vector 34 Sim2Scenario.uninfected[8].veinsmobility posy ETV
vector 35 Sim2Scenario.uninfected[5].veinsmobility acceleration ETV
vector 36 Sim2Scenario.uninfected[5].veinsmobility co2emission ETV
vector 37 Sim2Scenario.uninfected[6].veinsmobility acceleration ETV
vector 38 Sim2Scenario.uninfected[6].veinsmobility co2emission ETV
vector 39 Sim2Scenario.uninfected[7].veinsmobility speed ETV
vector 40 Sim2Scenario.uninfected[9].veinsmobility posx ETV
vector 41 Sim2Scenario.uninfected[9].veinsmobility posy ETV
vector 42 Sim2Scenario.uninfected[7].veinsmobility acceleration ETV
vector 43 Sim2Scenario.uninfected[7].veinsmobility co2emission ETV
vector 44 Sim2Scenario.uninfected[8].veinsmobility speed ETV
vector 45 Sim2Scenario.uninfected[10].veinsmobility posx ETV
vector 46 Sim2Scenario.uninfected[10].veinsmobility posy ETV
vector 47 Sim2Scenario.uninfected[11].veinsmobility posx ETV
vector 48 Sim2Scenario.uninfected[11].veinsmobility posy ETV
vector 49 Sim2Scenario.uninfected[8].veinsmobility acceleration ETV
vector 50 Sim2Scenario.uninfected[8].veinsmobility co2emission ETV
vector 51 Sim2Scenario.uninfected[9].veinsmobility speed ETV
vector 52 Sim2Scenario.uninfected[12].veinsmobility posx ETV
vector 53 Sim2Scenario.uninfected[12].veinsmobility posy ETV
vector 54 Sim2Scenario.uninfected[9].veinsmobility acceleration ETV
vector 55 Sim2Scenario.uninfected[9].veinsmobility co2emission ETV
vector 56 Sim2Scenario.uninfected[10].veinsmobility speed ETV
vector 57 Sim2Scenario.uninfected[11].veinsmobility speed ETV
vector 58 Sim2Scenario.uninfected[13].veinsmobility posx ETV
vector 59 Sim2Scenario.uninfected[13].veinsmobility posy ETV
vector 60 Sim2Scenario.uninfected[10].veinsmobility acceleration ETV
vector 61 Sim2Scenario.uninfected[10].veinsmobility co2emission ETV
vector 62 Sim2Scenario.uninfected[11].veinsmobility acceleration ETV
vector 63 Sim2Scenario.uninfected[11].veinsmobility co2emission ETV
vector 64 Sim2Scenario.uninfected[12].veinsmobility speed ETV
vector 65 Sim2Scenario.uninfected[14].veinsmobility posx ETV
vector 66 Sim2Scenario.uninfected[14].veinsmobility posy ETV
vector 67 Sim2Scenario.uninfected[12].veinsmobility acceleration ETV
vector 68 Sim2Scenario.uninfected[12].veinsmobility co2emission ETV
vector 69 Sim2Scenario.uninfected[13].veinsmobility speed ETV
vector 70 Sim2Scenario.uninfected[15].veinsmobility posx ETV
vector 71 Sim2Scenario.uninfected[15].veinsmobility posy ETV
vector 72 Sim2Scenario.uninfected[13].veinsmobility acceleration ETV
vector 73 Sim2Scenario.uninfected[13].veinsmobility co2emission ETV
vector 74 Sim2Scenario.uninfected[14].veinsmobility speed ETV
vector 75 Sim2Scenario.uninfected[16].veinsmobility posx ETV
vector 76 Sim2Scenario.uninfected[16].veinsmobility posy ETV
vector 77 Sim2Scenario.uninfected[17].veinsmobility posx ETV
vector 78 Sim2Scenario.uninfected[17].veinsmobility posy ETV
vector 79 Sim2Scenario.uninfected[14].veinsmobility acceleration ETV
vector 80 Sim2Scenario.uninfected[14].veinsmobility co2emission ETV
vector 81 Sim2Scenario.uninfected[15].veinsmobility speed ETV
vector 82 Sim2Scenario.uninfected[18].veinsmobility posx ETV
vector 83 Sim2Scenario.uninfected[18].veinsmobility posy ETV
vector 84 Sim2Scenario.uninfected[15].veinsmobility acceleration ETV
vector 85 Sim2Scenario.uninfected[15].veinsmobility co2emission ETV
vector 86 Sim2Scenario.uninfected[16].veinsmobility speed ETV
vector 87 Sim2Scenario.uninfected[17].veinsmobility speed ETV
vector 88 Sim2Scenario.uninfected[19].veinsmobility posx ETV
vector 89 Sim2Scenario.uninfected[19].veinsmobility posy ETV
vector 90 Sim2Scenario.uninfected[16].veinsmobility acceleration ETV
vector 91 Sim2Scenario.uninfected[16].veinsmobility co2emission ETV
vector 92 Sim2Scenario.uninfected[17].veinsmobility acceleration ETV
vector 93 Sim2Scenario.uninfected[17].veinsmobility co2emission ETV
vector 94 Sim2Scenario.uninfected[18].veinsmobility speed ETV
vector 95 Sim2Scenario.uninfected[20].veinsmobility posx ETV
vector 96 Sim2Scenario.uninfected[20].veinsmobility posy ETV
vector 97 Sim2Scenario.uninfected[18].veinsmobility acceleration ETV
vector 98 Sim2Scenario.uninfected[18].veinsmobility co2emission ETV
vector 99 Sim2Scenario.uninfected[19].veinsmobility speed ETV
vector 100 Sim2Scenario.uninfected[21].veinsmobility posx ETV
vector 101 Sim2Scenario.uninfected[21].veinsmobility posy ETV
vector 102 Sim2Scenario.uninfected[22].veinsmobility posx ETV
vector 103 Sim2Scenario.uninfected[22].veinsmobility posy ETV
vector 104 Sim2Scenario.uninfected[19].veinsmobility acceleration ETV
vector 105 Sim2Scenario.uninfected[19].veinsmobility co2emission ETV
vector 106 Sim2Scenario.uninfected[20].veinsmobility speed ETV
vector 107 Sim2Scenario.uninfected[23].veinsmobility posx ETV
vector 108 Sim2Scenario.uninfected[23].veinsmobility posy ETV
vector 109 Sim2Scenario.uninfected[20].veinsmobility acceleration ETV
vector 110 Sim2Scenario.uninfected[20].veinsmobility co2emission ETV
vector 111 Sim2Scenario.uninfected[21].veinsmobility speed ETV
vector 112 Sim2Scenario.uninfected[22].veinsmobility speed ETV
vector 113 Sim2Scenario.uninfected[24].veinsmobility posx ETV
vector 114 Sim2Scenario.uninfected[24].veinsmobility posy ETV
vector 115 Sim2Scenario.uninfected[21].veinsmobility acceleration ETV
vector 116 Sim2Scenario.uninfected[21].veinsmobility co2emission ETV
vector 117 Sim2Scenario.uninfected[22].veinsmobility acceleration ETV
vector 118 Sim2Scenario.uninfected[22].veinsmobility co2emission ETV
vector 119 Sim2Scenario.uninfected[23].veinsmobility speed ETV
vector 120 Sim2Scenario.uninfected[25].veinsmobility posx ETV
vector 121 Sim2Scenario.uninfected[25].veinsmobility posy ETV
vector 122 Sim2Scenario.uninfected[26].veinsmobility posx ETV
vector 123 Sim2Scenario.uninfected[26].veinsmobility posy ETV
vector 124 Sim2Scenario.uninfected[23].veinsmobility acceleration ETV
vector 125 Sim2Scenario.uninfected[23].veinsmobility co2emission ETV
vector 126 Sim2Scenario.uninfected[24].veinsmobility speed ETV
vector 127 Sim2Scenario.uninfected[27].veinsmobility posx ETV
vector 128 Sim2Scenario.uninfected[27].veinsmobility posy ETV
vector 129 Sim2Scenario.uninfected[24].veinsmobility acceleration ETV
vector 130 Sim2Scenario.uninfected[24].veinsmobility co2emission ETV
vector 131 Sim2Scenario.uninfected[25].veinsmobility speed ETV
vector 132 Sim2Scenario.uninfected[26].veinsmobility speed ETV
vector 133 Sim2Scenario.uninfected[28].veinsmobility posx ETV
vector 134 Sim2Scenario.uninfected[28].veinsmobility posy ETV
vector 135 Sim2Scenario.uninfected[25].veinsmobility acceleration ETV
vector 136 Sim2Scenario.uninfected[25].veinsmobility co2emission ETV
vector 137 Sim2Scenario.uninfected[26].veinsmobility acceleration ETV
vector 138 Sim2Scenario.uninfected[26].veinsmobility co2emission ETV
vector 139 Sim2Scenario.uninfected[27].veinsmobility speed ETV
vector 140 Sim2Scenario.uninfected[29].veinsmobility posx ETV
vector 141 Sim2Scenario.uninfected[29].veinsmobility posy ETV
vector 142 Sim2Scenario.uninfected[27].veinsmobility acceleration ETV
vector 143 Sim2Scenario.uninfected[27].veinsmobility co2emission ETV
vector 144 Sim2Scenario.uninfected[28].veinsmobility speed ETV
vector 145 Sim2Scenario.uninfected[30].veinsmobility posx ETV
vector 146 Sim2Scenario.uninfected[30].veinsmobility posy ETV
vector 147 Sim2Scenario.uninfected[31].veinsmobility posx ETV
vector 148 Sim2Scenario.uninfected[31].veinsmobility posy ETV
vector 149 Sim2Scenario.uninfected[28].veinsmobility acceleration ETV
vector 150 Sim2Scenario.uninfected[28].veinsmobility co2emission ETV
vector 151 Sim2Scenario.uninfected[29].veinsmobility speed ETV
vector 152 Sim2Scenario.uninfected[32].veinsmobility posx ETV
vector 153 Sim2Scenario.uninfected[32].veinsmobility posy ETV
vector 154 Sim2Scenario.uninfected[29].veinsmobility acceleration ETV
vector 155 Sim2Scenario.uninfected[29].veinsmobility co2emission ETV
vector 156 Sim2Scenario.uninfected[30].veinsmobility speed ETV
vector 157 Sim2Scenario.uninfected[31].veinsmobility speed ETV
vector 158 Sim2Scenario.uninfected[33].veinsmobility posx ETV
vector 159 Sim2Scenario.uninfected[33].veinsmobility posy ETV
vector 160 Sim2Scenario.uninfected[30].veinsmobility acceleration ETV
vector 161 Sim2Scenario.uninfected[30].veinsmobility co2emission ETV
vector 162 Sim2Scenario.uninfected[31].veinsmobility acceleration ETV
vector 163 Sim2Scenario.uninfected[31].veinsmobility co2emission ETV
vector 164 Sim2Scenario.uninfected[32].veinsmobility speed ETV
vector 165 Sim2Scenario.uninfected[34].veinsmobility posx ETV
vector 166 Sim2Scenario.uninfected[34].veinsmobility posy ETV
vector 167 Sim2Scenario.uninfected[32].veinsmobility acceleration ETV
vector 168 Sim2Scenario.uninfected[32].veinsmobility co2emission ETV
vector 169 Sim2Scenario.uninfected[33].veinsmobility speed ETV
vector 170 Sim2Scenario.uninfected[35].veinsmobility posx ETV
vector 171 Sim2Scenario.uninfected[35].veinsmobility posy ETV
vector 172 Sim2Scenario.uninfected[33].veinsmobility acceleration ETV
vector 173 Sim2Scenario.uninfected[33].veinsmobility co2emission ETV
vector 174 Sim2Scenario.uninfected[34].veinsmobility speed ETV
vector 175 Sim2Scenario.uninfected[36].veinsmobility posx ETV
vector 176 Sim2Scenario.uninfected[36].veinsmobility posy ETV
vector 177 Sim2Scenario.uninfected[34].veinsmobility acceleration ETV
vector 178 Sim2Scenario.uninfected[34].veinsmobility co2emission ETV
vector 179 Sim2Scenario.uninfected[35].veinsmobility speed ETV
vector 180 Sim2Scenario.uninfected[35].veinsmobility acceleration ETV
vector 181 Sim2Scenario.uninfected[35].veinsmobility co2emission ETV
vector 182 Sim2Scenario.uninfected[36].veinsmobility speed ETV
vector 183 Sim2Scenario.uninfected[37].veinsmobility posx ETV
vector 184 Sim2Scenario.uninfected[37].veinsmobility posy ETV
vector 185 Sim2Scenario.uninfected[38].veinsmobility posx ETV
vector 186 Sim2Scenario.uninfected[38].veinsmobility posy ETV
vector 187 Sim2Scenario.uninfected[36].veinsmobility acceleration ETV
vector 188 Sim2Scenario.uninfected[36].veinsmobility co2emission ETV
vector 189 Sim2Scenario.uninfected[39].veinsmobility posx ETV
vector 190 Sim2Scenario.uninfected[39].veinsmobility posy ETV
vector 191 Sim2Scenario.uninfected[40].veinsmobility posx ETV
vector 192 Sim2Scenario.uninfected[40].veinsmobility posy ETV
vector 193 Sim2Scenario.uninfected[37].veinsmobility speed ETV
vector 194 Sim2Scenario.uninfected[38].veinsmobility speed ETV
vector 195 Sim2Scenario.uninfected[37].veinsmobility acceleration ETV
vector 196 Sim2Scenario.uninfected[37].veinsmobility co2emission ETV
vector 197 Sim2Scenario.uninfected[38].veinsmobility acceleration ETV
vector 198 Sim2Scenario.uninfected[38].veinsmobility co2emission ETV
vector 199 Sim2Scenario.uninfected[39].veinsmobility speed ETV
vector 200 Sim2Scenario.uninfected[40].veinsmobility speed ETV
vector 201 Sim2Scenario.uninfected[41].veinsmobility posx ETV
vector 202 Sim2Scenario.uninfected[41].veinsmobility posy ETV
vector 203 Sim2Scenario.uninfected[39].veinsmobility acceleration ETV
vector 204 Sim2Scenario.uninfected[39].veinsmobility co2emission ETV
vector 205 Sim2Scenario.uninfected[40].veinsmobility acceleration ETV
vector 206 Sim2Scenario.uninfected[40].veinsmobility co2emission ETV
vector 207 Sim2Scenario.uninfected[42].veinsmobility posx ETV
vector 208 Sim2Scenario.uninfected[42].veinsmobility posy ETV
vector 209 Sim2Scenario.uninfected[41].veinsmobility speed ETV
vector 210 Sim2Scenario.uninfected[43].veinsmobility posx ETV
vector 211 Sim2Scenario.uninfected[43].veinsmobility posy ETV
vector 212 Sim2Scenario.uninfected[44].veinsmobility posx ETV
vector 213 Sim2Scenario.uninfected[44].veinsmobility posy ETV
vector 214 Sim2Scenario.uninfected[45].veinsmobility posx ETV
vector 215 Sim2Scenario.uninfected[45].veinsmobility posy ETV
vector 216 Sim2Scenario.uninfected[41].veinsmobility acceleration ETV
vector 217 Sim2Scenario.uninfected[41].veinsmobility co2emission ETV
vector 218 Sim2Scenario.uninfected[42].veinsmobility speed ETV
vector 219 Sim2Scenario.uninfected[46].veinsmobility posx ETV
vector 220 Sim2Scenario.uninfected[46].veinsmobility posy ETV
vector 221 Sim2Scenario.uninfected[42].veinsmobility acceleration ETV
vector 222 Sim2Scenario.uninfected[42].veinsmobility co2emission ETV
vector 223 Sim2Scenario.uninfected[43].veinsmobility speed ETV
vector 224 Sim2Scenario.uninfected[44].veinsmobility speed ETV
vector 225 Sim2Scenario.uninfected[45].veinsmobility speed ETV
vector 226 Sim2Scenario.uninfected[43].veinsmobility acceleration ETV
vector 227 Sim2Scenario.uninfected[43].veinsmobility co2emission ETV
vector 228 Sim2Scenario.uninfected[44].veinsmobility acceleration ETV
vector 229 Sim2Scenario.uninfected[44].veinsmobility co2emission ETV
vector 230 Sim2Scenario.uninfected[45].veinsmobility acceleration ETV
vector 231 Sim2Scenario.uninfected[45].veinsmobility co2emission ETV
vector 232 Sim2Scenario.uninfected[46].veinsmobility speed ETV
150	17725 444 6579 22434 25 39 15 1.7501808954799 8.3301717894666 52.712607550725 248.60479441222
149	18169 467 6579 22434 25 39 15 -0.080854451330378 2.0501344399736 10.594823215659 19.700265345521
144	18636 474 5894 22434 24 39 16 3.2902583603361 13.888165415043 187.13783447629 2377.5744959579
134	19110 333 5214 22434 23 39 17 826.6 826.6 14052.2 11615548.52
133	19443 501 5214 22434 23 39 17 33.656477173336 215.33169761299 1884.5214389633 269564.28858904
vector 233 Sim2Scenario.uninfected[47].veinsmobility posx ETV
vector 234 Sim2Scenario.uninfected[47].veinsmobility posy ETV
vector 235 Sim2Scenario.uninfected[46].veinsmobility acceleration ETV
vector 236 Sim2Scenario.uninfected[46].veinsmobility co2emission ETV
vector 237 Sim2Scenario.uninfected[48].veinsmobility posx ETV
vector 238 Sim2Scenario.uninfected[48].veinsmobility posy ETV
vector 239 Sim2Scenario.uninfected[49].veinsmobility posx ETV
vector 240 Sim2Scenario.uninfected[49].veinsmobility posy ETV
vector 241 Sim2Scenario.uninfected[50].veinsmobility posx ETV
vector 242 Sim2Scenario.uninfected[50].veinsmobility posy ETV
vector 243 Sim2Scenario.uninfected[47].veinsmobility speed ETV
vector 244 Sim2Scenario.uninfected[51].veinsmobility posx ETV
vector 245 Sim2Scenario.uninfected[51].veinsmobility posy ETV
vector 246 Sim2Scenario.uninfected[52].veinsmobility posx ETV
vector 247 Sim2Scenario.uninfected[52].veinsmobility posy ETV
vector 248 Sim2Scenario.uninfected[47].veinsmobility acceleration ETV
vector 249 Sim2Scenario.uninfected[47].veinsmobility co2emission ETV
vector 250 Sim2Scenario.uninfected[48].veinsmobility speed ETV
vector 251 Sim2Scenario.uninfected[49].veinsmobility speed ETV
vector 252 Sim2Scenario.uninfected[50].veinsmobility speed ETV
vector 253 Sim2Scenario.uninfected[48].veinsmobility acceleration ETV
vector 254 Sim2Scenario.uninfected[48].veinsmobility co2emission ETV
vector 255 Sim2Scenario.uninfected[49].veinsmobility acceleration ETV
vector 256 Sim2Scenario.uninfected[49].veinsmobility co2emission ETV
vector 257 Sim2Scenario.uninfected[50].veinsmobility acceleration ETV
vector 258 Sim2Scenario.uninfected[50].veinsmobility co2emission ETV
vector 259 Sim2Scenario.uninfected[51].veinsmobility speed ETV
vector 260 Sim2Scenario.uninfected[52].veinsmobility speed ETV
vector 261 Sim2Scenario.uninfected[53].veinsmobility posx ETV
vector 262 Sim2Scenario.uninfected[53].veinsmobility posy ETV
vector 263 Sim2Scenario.uninfected[51].veinsmobility acceleration ETV
vector 264 Sim2Scenario.uninfected[51].veinsmobility co2emission ETV
vector 265 Sim2Scenario.uninfected[52].veinsmobility acceleration ETV
vector 266 Sim2Scenario.uninfected[52].veinsmobility co2emission ETV
vector 267 Sim2Scenario.uninfected[54].veinsmobility posx ETV
vector 268 Sim2Scenario.uninfected[54].veinsmobility posy ETV
vector 269 Sim2Scenario.uninfected[55].veinsmobility posx ETV
vector 270 Sim2Scenario.uninfected[55].veinsmobility posy ETV
vector 271 Sim2Scenario.uninfected[53].veinsmobility speed ETV
vector 272 Sim2Scenario.uninfected[56].veinsmobility posx ETV
vector 273 Sim2Scenario.uninfected[56].veinsmobility posy ETV
vector 274 Sim2Scenario.uninfected[53].veinsmobility acceleration ETV
vector 275 Sim2Scenario.uninfected[53].veinsmobility co2emission ETV
vector 276 Sim2Scenario.uninfected[54].veinsmobility speed ETV
vector 277 Sim2Scenario.uninfected[55].veinsmobility speed ETV
vector 278 Sim2Scenario.uninfected[57].veinsmobility posx ETV
vector 279 Sim2Scenario.uninfected[57].veinsmobility posy ETV
vector 280 Sim2Scenario.uninfected[54].veinsmobility acceleration ETV
vector 281 Sim2Scenario.uninfected[54].veinsmobility co2emission ETV
vector 282 Sim2Scenario.uninfected[55].veinsmobility acceleration ETV
vector 283 Sim2Scenario.uninfected[55].veinsmobility co2emission ETV
vector 284 Sim2Scenario.uninfected[56].veinsmobility speed ETV
vector 285 Sim2Scenario.uninfected[58].veinsmobility posx ETV
vector 286 Sim2Scenario.uninfected[58].veinsmobility posy ETV
vector 287 Sim2Scenario.uninfected[56].veinsmobility acceleration ETV
vector 288 Sim2Scenario.uninfected[56].veinsmobility co2emission ETV
vector 289 Sim2Scenario.uninfected[57].veinsmobility speed ETV
vector 290 Sim2Scenario.uninfected[59].veinsmobility posx ETV
vector 291 Sim2Scenario.uninfected[59].veinsmobility posy ETV
vector 292 Sim2Scenario.uninfected[60].veinsmobility posx ETV
vector 293 Sim2Scenario.uninfected[60].veinsmobility posy ETV
vector 294 Sim2Scenario.uninfected[57].veinsmobility acceleration ETV
vector 295 Sim2Scenario.uninfected[57].veinsmobility co2emission ETV
vector 296 Sim2Scenario.uninfected[58].veinsmobility speed ETV
vector 297 Sim2Scenario.uninfected[61].veinsmobility posx ETV
vector 298 Sim2Scenario.uninfected[61].veinsmobility posy ETV
vector 299 Sim2Scenario.uninfected[58].veinsmobility acceleration ETV
vector 300 Sim2Scenario.uninfected[58].veinsmobility co2emission ETV
vector 301 Sim2Scenario.uninfected[59].veinsmobility speed ETV
vector 302 Sim2Scenario.uninfected[60].veinsmobility speed ETV
vector 303 Sim2Scenario.uninfected[59].veinsmobility acceleration ETV
vector 304 Sim2Scenario.uninfected[59].veinsmobility co2emission ETV
vector 305 Sim2Scenario.uninfected[60].veinsmobility acceleration ETV
vector 306 Sim2Scenario.uninfected[60].veinsmobility co2emission ETV
vector 307 Sim2Scenario.uninfected[61].veinsmobility speed ETV
vector 308 Sim2Scenario.uninfected[62].veinsmobility posx ETV
vector 309 Sim2Scenario.uninfected[62].veinsmobility posy ETV
vector 310 Sim2Scenario.uninfected[61].veinsmobility acceleration ETV
vector 311 Sim2Scenario.uninfected[61].veinsmobility co2emission ETV
vector 312 Sim2Scenario.uninfected[63].veinsmobility posx ETV
vector 313 Sim2Scenario.uninfected[63].veinsmobility posy ETV
vector 314 Sim2Scenario.uninfected[64].veinsmobility posx ETV
vector 315 Sim2Scenario.uninfected[64].veinsmobility posy ETV
vector 316 Sim2Scenario.uninfected[65].veinsmobility posx ETV
vector 317 Sim2Scenario.uninfected[65].veinsmobility posy ETV
vector 318 Sim2Scenario.uninfected[62].veinsmobility speed ETV
vector 319 Sim2Scenario.uninfected[62].veinsmobility acceleration ETV
vector 320 Sim2Scenario.uninfected[62].veinsmobility co2emission ETV
vector 321 Sim2Scenario.uninfected[63].veinsmobility speed ETV
vector 322 Sim2Scenario.uninfected[64].veinsmobility speed ETV
vector 323 Sim2Scenario.uninfected[65].veinsmobility speed ETV
vector 324 Sim2Scenario.uninfected[66].veinsmobility posx ETV
vector 325 Sim2Scenario.uninfected[66].veinsmobility posy ETV
vector 326 Sim2Scenario.uninfected[63].veinsmobility acceleration ETV
vector 327 Sim2Scenario.uninfected[63].veinsmobility co2emission ETV
vector 328 Sim2Scenario.uninfected[64].veinsmobility acceleration ETV
vector 329 Sim2Scenario.uninfected[64].veinsmobility co2emission ETV
vector 330 Sim2Scenario.uninfected[65].veinsmobility acceleration ETV
vector 331 Sim2Scenario.uninfected[65].veinsmobility co2emission ETV
50	26500 1281 378 62863 9 55 47 0.973 8.9751073796571 133.13846546981 552.23648585635
49	27781 1424 378 62863 9 55 47 -3.2277414567939 2.1985011901264 10.484226726046 66.400529111992
44	29205 1345 300 62863 8 55 48 3.293667231119 13.883347843506 564.46985358715 7209.432049777
34	30550 1379 192 62863 7 55 49 231.57442043515 606.49508211798 18418.49847765 7488653.0938061
33	31929 918 192 62863 7 55 49 823.4 826.6 40407.164642812 33321320.391589
vector 332 Sim2Scenario.uninfected[67].veinsmobility posx ETV
vector 333 Sim2Scenario.uninfected[67].veinsmobility posy ETV
vector 334 Sim2Scenario.uninfected[66].veinsmobility speed ETV
vector 335 Sim2Scenario.uninfected[68].veinsmobility posx ETV
vector 336 Sim2Scenario.uninfected[68].veinsmobility posy ETV
vector 337 Sim2Scenario.uninfected[69].veinsmobility posx ETV
vector 338 Sim2Scenario.uninfected[69].veinsmobility posy ETV
vector 339 Sim2Scenario.uninfected[70].veinsmobility posx ETV
vector 340 Sim2Scenario.uninfected[70].veinsmobility posy ETV
vector 341 Sim2Scenario.uninfected[66].veinsmobility acceleration ETV
vector 342 Sim2Scenario.uninfected[66].veinsmobility co2emission ETV
vector 343 Sim2Scenario.uninfected[67].veinsmobility speed ETV
36	33620 1353 192 70129 7 57 51 0.973 8.8016344038116 159.36507803086 739.79718274927
35	34973 1512 192 70129 7 57 51 -3.2954760108976 2.3720879355445 9.867597253217 120.64768492714
31	36485 1465 137 70129 6 57 52 1.5381543859228 13.873183750466 566.80696364398 6928.2902550324
21	37950 1325 56 70129 5 57 53 444.29170513773 811.6349117752 33630.886872732 21749866.039592
20	39275 1170 56 70129 5 57 53 26.6 226.6 6839.1281068664 1305315.1978594
vector 344 Sim2Scenario.uninfected[71].veinsmobility posx ETV
vector 345 Sim2Scenario.uninfected[71].veinsmobility posy ETV
vector 346 Sim2Scenario.uninfected[72].veinsmobility posx ETV
vector 347 Sim2Scenario.uninfected[72].veinsmobility posy ETV
vector 348 Sim2Scenario.uninfected[67].veinsmobility acceleration ETV
vector 349 Sim2Scenario.uninfected[67].veinsmobility co2emission ETV
vector 350 Sim2Scenario.uninfected[68].veinsmobility speed ETV
vector 351 Sim2Scenario.uninfected[69].veinsmobility speed ETV
vector 352 Sim2Scenario.uninfected[70].veinsmobility speed ETV
vector 353 Sim2Scenario.uninfected[73].veinsmobility posx ETV
vector 354 Sim2Scenario.uninfected[73].veinsmobility posy ETV
vector 355 Sim2Scenario.uninfected[68].veinsmobility acceleration ETV
vector 356 Sim2Scenario.uninfected[68].veinsmobility co2emission ETV
vector 357 Sim2Scenario.uninfected[69].veinsmobility acceleration ETV
vector 358 Sim2Scenario.uninfected[69].veinsmobility co2emission ETV
vector 359 Sim2Scenario.uninfected[70].veinsmobility acceleration ETV
vector 360 Sim2Scenario.uninfected[70].veinsmobility co2emission ETV
vector 361 Sim2Scenario.uninfected[71].veinsmobility speed ETV
vector 362 Sim2Scenario.uninfected[72].veinsmobility speed ETV
vector 363 Sim2Scenario.uninfected[74].veinsmobility posx ETV
vector 364 Sim2Scenario.uninfected[74].veinsmobility posy ETV
vector 365 Sim2Scenario.uninfected[71].veinsmobility acceleration ETV
vector 366 Sim2Scenario.uninfected[71].veinsmobility co2emission ETV
vector 367 Sim2Scenario.uninfected[72].veinsmobility acceleration ETV
vector 368 Sim2Scenario.uninfected[72].veinsmobility co2emission ETV
vector 369 Sim2Scenario.uninfected[73].veinsmobility speed ETV
vector 370 Sim2Scenario.uninfected[75].veinsmobility posx ETV
vector 371 Sim2Scenario.uninfected[75].veinsmobility posy ETV
vector 372 Sim2Scenario.uninfected[73].veinsmobility acceleration ETV
vector 373 Sim2Scenario.uninfected[73].veinsmobility co2emission ETV
vector 374 Sim2Scenario.uninfected[74].veinsmobility speed ETV
vector 375 Sim2Scenario.uninfected[74].veinsmobility acceleration ETV
vector 376 Sim2Scenario.uninfected[74].veinsmobility co2emission ETV
vector 377 Sim2Scenario.uninfected[75].veinsmobility speed ETV
73	42715 1347 950 91125 13 62 50 0.973 8.8222810535311 158.25175564028 742.8618516269
72	44062 1496 950 91125 13 62 50 -3.1637166235369 2.4871456303028 10.388935456208 112.81132144405
69	45558 1454 788 91125 12 62 51 3.3741327110777 13.886589885375 573.94907610606 7056.9310488049
59	47012 1124 612 91125 11 62 52 442.73157050906 626.6 31254.708462526 18919129.321455
58	48136 1342 612 91125 11 62 52 437.67412009139 826.6 35486.051016016 25192570.368576
vector 378 Sim2Scenario.uninfected[76].veinsmobility posx ETV
vector 379 Sim2Scenario.uninfected[76].veinsmobility posy ETV
vector 380 Sim2Scenario.uninfected[77].veinsmobility posx ETV
vector 381 Sim2Scenario.uninfected[77].veinsmobility posy ETV
vector 382 Sim2Scenario.uninfected[75].veinsmobility acceleration ETV
vector 383 Sim2Scenario.uninfected[75].veinsmobility co2emission ETV
vector 384 Sim2Scenario.uninfected[78].veinsmobility posx ETV
vector 385 Sim2Scenario.uninfected[78].veinsmobility posy ETV
vector 386 Sim2Scenario.uninfected[79].veinsmobility posx ETV
vector 387 Sim2Scenario.uninfected[79].veinsmobility posy ETV
vector 388 Sim2Scenario.uninfected[76].veinsmobility speed ETV
vector 389 Sim2Scenario.uninfected[77].veinsmobility speed ETV
110	50251 1327 2883 100292 19 64 46 0.973 8.3721350254747 131.68134091546 551.03024410964
109	51578 1452 2883 100292 19 64 46 -3.2816043942906 2.1833615128719 9.8693479821065 65.090354785079
106	53030 1394 2432 100292 18 64 47 3.9312425503179 13.885210437789 574.04687343082 7424.0216042122
96	54424 1236 2032 100292 17 64 48 223.4 611.6652893081 17352.479936928 7206961.341017
95	55660 1060 2032 100292 17 64 48 242.93537648669 426.6 19148.941823505 7769355.1372615
118	56720 1300 3418 100292 20 64 45 0.973 7.662251716358 128.51369225329 514.26928632318
117	58020 1428 3418 100292 20 64 45 -4.4512668016165 1.9738414321397 10.982472943873 57.738561974327
112	59448 1369 2883 100292 19 64 46 2.8243430119075 13.88821892451 566.64636503499 7357.4540283773
103	60817 1249 2432 100292 18 64 47 237.45436183091 623.4 22523.626999614 11726189.057182
102	62066 1076 2432 100292 18 64 47 246.03425922515 423.4 18653.077886083 7520888.9377213
vector 390 Sim2Scenario.uninfected[80].veinsmobility posx ETV
vector 391 Sim2Scenario.uninfected[80].veinsmobility posy ETV
vector 392 Sim2Scenario.uninfected[76].veinsmobility acceleration ETV
vector 393 Sim2Scenario.uninfected[76].veinsmobility co2emission ETV
vector 394 Sim2Scenario.uninfected[77].veinsmobility acceleration ETV
vector 395 Sim2Scenario.uninfected[77].veinsmobility co2emission ETV
vector 396 Sim2Scenario.uninfected[78].veinsmobility speed ETV
vector 397 Sim2Scenario.uninfected[79].veinsmobility speed ETV
vector 398 Sim2Scenario.uninfected[81].veinsmobility posx ETV
vector 399 Sim2Scenario.uninfected[81].veinsmobility posy ETV
vector 400 Sim2Scenario.uninfected[82].veinsmobility posx ETV
vector 401 Sim2Scenario.uninfected[82].veinsmobility posy ETV
vector 402 Sim2Scenario.uninfected[78].veinsmobility acceleration ETV
vector 403 Sim2Scenario.uninfected[78].veinsmobility co2emission ETV
vector 404 Sim2Scenario.uninfected[79].veinsmobility acceleration ETV
vector 405 Sim2Scenario.uninfected[79].veinsmobility co2emission ETV
vector 406 Sim2Scenario.uninfected[80].veinsmobility speed ETV
vector 407 Sim2Scenario.uninfected[83].veinsmobility posx ETV
vector 408 Sim2Scenario.uninfected[83].veinsmobility posy ETV
vector 409 Sim2Scenario.uninfected[80].veinsmobility acceleration ETV
vector 410 Sim2Scenario.uninfected[80].veinsmobility co2emission ETV
vector 411 Sim2Scenario.uninfected[81].veinsmobility speed ETV
vector 412 Sim2Scenario.uninfected[82].veinsmobility speed ETV
vector 413 Sim2Scenario.uninfected[84].veinsmobility posx ETV
vector 414 Sim2Scenario.uninfected[84].veinsmobility posy ETV
vector 415 Sim2Scenario.uninfected[81].veinsmobility acceleration ETV
vector 416 Sim2Scenario.uninfected[81].veinsmobility co2emission ETV
vector 417 Sim2Scenario.uninfected[82].veinsmobility acceleration ETV
vector 418 Sim2Scenario.uninfected[82].veinsmobility co2emission ETV
vector 419 Sim2Scenario.uninfected[83].veinsmobility speed ETV
vector 420 Sim2Scenario.uninfected[85].veinsmobility posx ETV
vector 421 Sim2Scenario.uninfected[85].veinsmobility posy ETV
vector 422 Sim2Scenario.uninfected[86].veinsmobility posx ETV
vector 423 Sim2Scenario.uninfected[86].veinsmobility posy ETV
vector 424 Sim2Scenario.uninfected[83].veinsmobility acceleration ETV
vector 425 Sim2Scenario.uninfected[83].veinsmobility co2emission ETV
vector 426 Sim2Scenario.uninfected[84].veinsmobility speed ETV
vector 427 Sim2Scenario.uninfected[87].veinsmobility posx ETV
vector 428 Sim2Scenario.uninfected[87].veinsmobility posy ETV
vector 429 Sim2Scenario.uninfected[84].veinsmobility acceleration ETV
vector 430 Sim2Scenario.uninfected[84].veinsmobility co2emission ETV
vector 431 Sim2Scenario.uninfected[85].veinsmobility speed ETV
vector 432 Sim2Scenario.uninfected[86].veinsmobility speed ETV
vector 433 Sim2Scenario.uninfected[88].veinsmobility posx ETV
vector 434 Sim2Scenario.uninfected[88].veinsmobility posy ETV
vector 435 Sim2Scenario.uninfected[85].veinsmobility acceleration ETV
vector 436 Sim2Scenario.uninfected[85].veinsmobility co2emission ETV
vector 437 Sim2Scenario.uninfected[86].veinsmobility acceleration ETV
vector 438 Sim2Scenario.uninfected[86].veinsmobility co2emission ETV
vector 439 Sim2Scenario.uninfected[87].veinsmobility speed ETV
vector 440 Sim2Scenario.uninfected[89].veinsmobility posx ETV
vector 441 Sim2Scenario.uninfected[89].veinsmobility posy ETV
vector 442 Sim2Scenario.uninfected[87].veinsmobility acceleration ETV
vector 443 Sim2Scenario.uninfected[87].veinsmobility co2emission ETV
vector 444 Sim2Scenario.uninfected[88].veinsmobility speed ETV
vector 445 Sim2Scenario.uninfected[90].veinsmobility posx ETV
vector 446 Sim2Scenario.uninfected[90].veinsmobility posy ETV
vector 447 Sim2Scenario.uninfected[91].veinsmobility posx ETV
vector 448 Sim2Scenario.uninfected[91].veinsmobility posy ETV
vector 449 Sim2Scenario.uninfected[88].veinsmobility acceleration ETV
vector 450 Sim2Scenario.uninfected[88].veinsmobility co2emission ETV
vector 451 Sim2Scenario.uninfected[89].veinsmobility speed ETV
vector 452 Sim2Scenario.uninfected[92].veinsmobility posx ETV
vector 453 Sim2Scenario.uninfected[92].veinsmobility posy ETV
vector 454 Sim2Scenario.uninfected[89].veinsmobility acceleration ETV
vector 455 Sim2Scenario.uninfected[89].veinsmobility co2emission ETV
vector 456 Sim2Scenario.uninfected[90].veinsmobility speed ETV
vector 457 Sim2Scenario.uninfected[91].veinsmobility speed ETV
vector 458 Sim2Scenario.uninfected[93].veinsmobility posx ETV
vector 459 Sim2Scenario.uninfected[93].veinsmobility posy ETV
vector 460 Sim2Scenario.uninfected[90].veinsmobility acceleration ETV
vector 461 Sim2Scenario.uninfected[90].veinsmobility co2emission ETV
vector 462 Sim2Scenario.uninfected[91].veinsmobility acceleration ETV
vector 463 Sim2Scenario.uninfected[91].veinsmobility co2emission ETV
vector 464 Sim2Scenario.uninfected[92].veinsmobility speed ETV
168	68122 1404 9097 159048 28 75 48 0.973 8.5564990787399 136.34487653865 560.43267637517
167	69526 1528 9097 159048 28 75 48 -3.1677671816525 2.1019884104398 11.06869554497 68.158787932305
164	71054 1453 8143 159048 27 75 49 2.7822129126853 13.88939373153 572.8030380997 7310.9858247844
153	72507 1018 7318 159048 26 75 50 823.4 826.6 41222.316991541 33985698.70934
152	73525 1506 7318 159048 26 75 50 230.84150422946 612.55094051574 19522.667676194 8364140.5338661
161	75031 1406 8143 159048 27 75 49 0.973 8.8491187315547 152.00698705996 714.52316531048
160	76437 1537 8143 159048 27 75 49 -4.5 2.0623492601886 9.6758827414595 105.05579204829
156	77974 1504 7318 159048 26 75 50 3.6202878824878 13.883168430093 560.34059367231 6897.4709417088
146	79478 1225 6579 159048 25 75 51 438.39059339678 626.6 30068.024640017 17915948.235619
145	80703 1373 6579 159048 25 75 51 231.57170786488 423.4 17935.165502004 6566278.89382
vector 465 Sim2Scenario.uninfected[94].veinsmobility posx ETV
vector 466 Sim2Scenario.uninfected[94].veinsmobility posy ETV
vector 467 Sim2Scenario.uninfected[92].veinsmobility acceleration ETV
vector 468 Sim2Scenario.uninfected[92].veinsmobility co2emission ETV
vector 469 Sim2Scenario.uninfected[93].veinsmobility speed ETV
vector 470 Sim2Scenario.uninfected[95].veinsmobility posx ETV
vector 471 Sim2Scenario.uninfected[95].veinsmobility posy ETV
vector 472 Sim2Scenario.uninfected[93].veinsmobility acceleration ETV
vector 473 Sim2Scenario.uninfected[93].veinsmobility co2emission ETV
vector 474 Sim2Scenario.uninfected[94].veinsmobility speed ETV
vector 475 Sim2Scenario.uninfected[96].veinsmobility posx ETV
vector 476 Sim2Scenario.uninfected[96].veinsmobility posy ETV
vector 477 Sim2Scenario.uninfected[94].veinsmobility acceleration ETV
vector 478 Sim2Scenario.uninfected[94].veinsmobility co2emission ETV
vector 479 Sim2Scenario.uninfected[95].veinsmobility speed ETV
vector 480 Sim2Scenario.uninfected[97].veinsmobility posx ETV
vector 481 Sim2Scenario.uninfected[97].veinsmobility posy ETV
vector 482 Sim2Scenario.uninfected[95].veinsmobility acceleration ETV
vector 483 Sim2Scenario.uninfected[95].veinsmobility co2emission ETV
vector 484 Sim2Scenario.uninfected[96].veinsmobility speed ETV
61	83400 1850 612 184135 11 79 69 0.973 8.6482291221505 213.42806318425 987.53340719622
60	85250 2084 612 184135 11 79 69 -3.3543585960279 2.2828285532491 6.4309114168994 168.83922406301
56	87334 2015 495 184135 10 79 70 3.6743001639781 13.887267990485 783.91403514193 9535.5945735077
46	89349 1690 378 184135 9 79 71 23.4 226.6 8961.4794030034 1648121.1873807
45	91039 1742 378 184135 9 79 71 623.4 826.6 51396.637082291 37711983.341514
vector 485 Sim2Scenario.uninfected[98].veinsmobility posx ETV
vector 486 Sim2Scenario.uninfected[98].veinsmobility posy ETV
vector 487 Sim2Scenario.uninfected[96].veinsmobility acceleration ETV
vector 488 Sim2Scenario.uninfected[96].veinsmobility co2emission ETV
vector 489 Sim2Scenario.uninfected[97].veinsmobility speed ETV
38	93112 1817 192 190916 7 80 74 0.973 8.5397469236717 184.30254912505 784.09640729028
37	94929 2006 192 190916 7 80 74 -3.2921178502736 2.4377233522641 1.8562611188428 162.62617884213
32	96935 1943 137 190916 6 80 75 0 13.884198085242 568.82248536335 6634.0581882401
23	98878 1639 56 190916 5 80 76 37.325877877342 226.6 15151.371817753 3252445.6898788
22	100517 1874 56 190916 5 80 76 223.4 419.0290335826 24213.081204477 8226838.7197401
vector 490 Sim2Scenario.uninfected[97].veinsmobility acceleration ETV
vector 491 Sim2Scenario.uninfected[97].veinsmobility co2emission ETV
vector 492 Sim2Scenario.uninfected[98].veinsmobility speed ETV
vector 493 Sim2Scenario.uninfected[99].veinsmobility posx ETV
vector 494 Sim2Scenario.uninfected[99].veinsmobility posy ETV
vector 495 Sim2Scenario.uninfected[98].veinsmobility acceleration ETV
vector 496 Sim2Scenario.uninfected[98].veinsmobility co2emission ETV
vector 497 Sim2Scenario.uninfected[100].veinsmobility posx ETV
vector 498 Sim2Scenario.uninfected[100].veinsmobility posy ETV
vector 499 Sim2Scenario.uninfected[101].veinsmobility posx ETV
vector 500 Sim2Scenario.uninfected[101].veinsmobility posy ETV
vector 501 Sim2Scenario.uninfected[99].veinsmobility speed ETV
206	103183 1427 16517 211232 35 83 49 0.973 9.085395360999 153.80410318472 712.88932567168
205	104610 1561 16517 211232 35 83 49 -4.0357975112321 2.1935933113052 11.384889884379 105.40312979646
200	106171 1515 15152 211232 34 83 50 2.5001092685369 13.889032822268 571.1662966018 7075.3405130866
192	107686 1220 13844 211232 33 83 51 226.6 426.6 17165.41700695 6182224.0781236
191	108906 1405 13844 211232 33 83 51 237.32554947609 608.30216033804 21047.495538783 9125397.4181633
vector 502 Sim2Scenario.uninfected[102].veinsmobility posx ETV
vector 503 Sim2Scenario.uninfected[102].veinsmobility posy ETV
vector 504 Sim2Scenario.uninfected[99].veinsmobility acceleration ETV
vector 505 Sim2Scenario.uninfected[99].veinsmobility co2emission ETV
vector 506 Sim2Scenario.uninfected[100].veinsmobility speed ETV
vector 507 Sim2Scenario.uninfected[101].veinsmobility speed ETV
204	110710 1434 16517 218573 35 84 50 0.973 8.4134580557847 156.17259817329 727.21072963461
203	112144 1584 16517 218573 35 84 50 -3.2603686832132 2.2559416446925 9.6944567637536 109.50503682167
199	113728 1547 15152 218573 34 84 51 3.4219288513117 13.888914012592 574.96203048154 7067.2541090853
190	115275 1413 13844 218573 33 84 52 438.3739853851 813.85441718353 32126.500207884 20277934.054557
189	116688 1237 13844 218573 33 84 52 23.4 223.4 6206.8014139983 1154722.5820719
vector 508 Sim2Scenario.uninfected[103].veinsmobility posx ETV
vector 509 Sim2Scenario.uninfected[103].veinsmobility posy ETV
vector 510 Sim2Scenario.uninfected[104].veinsmobility posx ETV
vector 511 Sim2Scenario.uninfected[104].veinsmobility posy ETV
vector 512 Sim2Scenario.uninfected[100].veinsmobility acceleration ETV
vector 513 Sim2Scenario.uninfected[100].veinsmobility co2emission ETV
vector 514 Sim2Scenario.uninfected[101].veinsmobility acceleration ETV
vector 515 Sim2Scenario.uninfected[101].veinsmobility co2emission ETV
vector 516 Sim2Scenario.uninfected[102].veinsmobility speed ETV
vector 517 Sim2Scenario.uninfected[105].veinsmobility posx ETV
vector 518 Sim2Scenario.uninfected[105].veinsmobility posy ETV
vector 519 Sim2Scenario.uninfected[102].veinsmobility acceleration ETV
vector 520 Sim2Scenario.uninfected[102].veinsmobility co2emission ETV
vector 521 Sim2Scenario.uninfected[103].veinsmobility speed ETV
vector 522 Sim2Scenario.uninfected[104].veinsmobility speed ETV
vector 523 Sim2Scenario.uninfected[106].veinsmobility posx ETV
vector 524 Sim2Scenario.uninfected[106].veinsmobility posy ETV
vector 525 Sim2Scenario.uninfected[103].veinsmobility acceleration ETV
vector 526 Sim2Scenario.uninfected[103].veinsmobility co2emission ETV
vector 527 Sim2Scenario.uninfected[104].veinsmobility acceleration ETV
vector 528 Sim2Scenario.uninfected[104].veinsmobility co2emission ETV
vector 529 Sim2Scenario.uninfected[105].veinsmobility speed ETV
116	119412 1919 3418 240496 20 87 68 0.973 8.3814044877333 203.33979587293 916.80794963478
115	121331 2144 3418 240496 20 87 68 -3.3115132913068 2.4816465239902 10.179550847053 121.89269416649
111	123475 2070 2883 240496 19 87 69 3.673589325125 13.88371486451 780.65668258855 9584.1467287499
101	125545 1933 2432 240496 18 87 70 223.4 613.30011803414 23536.556925554 8843212.6858797
100	127478 1590 2432 240496 18 87 70 23.4 226.6 7511.5696643076 1394452.1322549
vector 530 Sim2Scenario.uninfected[107].veinsmobility posx ETV
vector 531 Sim2Scenario.uninfected[107].veinsmobility posy ETV
vector 532 Sim2Scenario.uninfected[108].veinsmobility posx ETV
vector 533 Sim2Scenario.uninfected[108].veinsmobility posy ETV
vector 534 Sim2Scenario.uninfected[105].veinsmobility acceleration ETV
vector 535 Sim2Scenario.uninfected[105].veinsmobility co2emission ETV
vector 536 Sim2Scenario.uninfected[106].veinsmobility speed ETV
vector 537 Sim2Scenario.uninfected[109].veinsmobility posx ETV
vector 538 Sim2Scenario.uninfected[109].veinsmobility posy ETV
vector 539 Sim2Scenario.uninfected[110].veinsmobility posx ETV
vector 540 Sim2Scenario.uninfected[110].veinsmobility posy ETV
vector 541 Sim2Scenario.uninfected[106].veinsmobility acceleration ETV
vector 542 Sim2Scenario.uninfected[106].veinsmobility co2emission ETV
vector 543 Sim2Scenario.uninfected[107].veinsmobility speed ETV
vector 544 Sim2Scenario.uninfected[108].veinsmobility speed ETV
463	130061 464 159048 255626 75 89 15 1.8224953645969 7.7543694127825 52.997955126646 250.49907865917
462	130525 485 159048 255626 75 89 15 -0.058795067281462 2.0162569059595 11.354583698568 20.733120940694
457	131010 492 152987 255626 74 89 16 2.531153849225 13.885737547793 181.2151563971 2281.0268181091
448	131502 527 146701 255626 73 89 17 637.55040433811 812.67467037607 12587.384400299 9377203.3627688
447	132029 357 146701 255626 73 89 17 426.6 426.6 7252.2 3093788.52
vector 545 Sim2Scenario.uninfected[111].veinsmobility posx ETV
vector 546 Sim2Scenario.uninfected[111].veinsmobility posy ETV
vector 547 Sim2Scenario.uninfected[107].veinsmobility acceleration ETV
vector 548 Sim2Scenario.uninfected[107].veinsmobility co2emission ETV
vector 549 Sim2Scenario.uninfected[108].veinsmobility acceleration ETV
vector 550 Sim2Scenario.uninfected[108].veinsmobility co2emission ETV
vector 551 Sim2Scenario.uninfected[109].veinsmobility speed ETV
vector 552 Sim2Scenario.uninfected[110].veinsmobility speed ETV
143	132930 1914 5894 263655 24 90 67 0.973 8.0993531882231 206.35116666927 937.14237321043
142	134844 2138 5894 263655 24 90 67 -4.4027481850023 2.3111599113001 10.734160378847 148.9929714485
139	136982 2055 5214 263655 23 90 68 3.0613856177154 13.889578557343 775.26653800778 9579.3199345512
128	139037 1778 4558 263655 22 90 69 37.448126722161 426.6 18535.673199525 6012495.3359173
127	140815 1764 4558 263655 22 90 69 223.4 423.4 22094.515164006 7557596.3284679
vector 553 Sim2Scenario.uninfected[112].veinsmobility posx ETV
vector 554 Sim2Scenario.uninfected[112].veinsmobility posy ETV
vector 555 Sim2Scenario.uninfected[113].veinsmobility posx ETV
vector 556 Sim2Scenario.uninfected[113].veinsmobility posy ETV
vector 557 Sim2Scenario.uninfected[109].veinsmobility acceleration ETV
vector 558 Sim2Scenario.uninfected[109].veinsmobility co2emission ETV
vector 559 Sim2Scenario.uninfected[110].veinsmobility acceleration ETV
vector 560 Sim2Scenario.uninfected[110].veinsmobility co2emission ETV
vector 561 Sim2Scenario.uninfected[111].veinsmobility speed ETV
vector 562 Sim2Scenario.uninfected[114].veinsmobility posx ETV
vector 563 Sim2Scenario.uninfected[114].veinsmobility posy ETV
vector 564 Sim2Scenario.uninfected[111].veinsmobility acceleration ETV
vector 565 Sim2Scenario.uninfected[111].veinsmobility co2emission ETV
vector 566 Sim2Scenario.uninfected[112].veinsmobility speed ETV
vector 567 Sim2Scenario.uninfected[113].veinsmobility speed ETV
vector 568 Sim2Scenario.uninfected[112].veinsmobility acceleration ETV
vector 569 Sim2Scenario.uninfected[112].veinsmobility co2emission ETV
vector 570 Sim2Scenario.uninfected[113].veinsmobility acceleration ETV
vector 571 Sim2Scenario.uninfected[113].veinsmobility co2emission ETV
vector 572 Sim2Scenario.uninfected[114].veinsmobility speed ETV
13	143938 2575 6 287708 3 93 91 0.973 8.4522751537096 222.96424369404 720.00597925501
12	146513 2811 6 287708 3 93 91 -3.2103543080547 2.1651447518985 11.268221712057 64.519017181148
7	149324 2540 3 287708 2 93 92 2.5232644384633 13.889684227989 1182.9653589848 15786.259211474
3	151864 2137 2 287708 1 93 93 237.32518936719 826.6 62135.406856515 45357678.013935
2	154001 2089 2 287708 1 93 93 223.4 814.3775240147 33718.219008345 15576893.945348
30	156090 2328 137 287708 6 93 88 0.973 8.5762616818528 265.61699627344 1231.4001152309
29	158418 2664 137 287708 6 93 88 -3.3679953773215 2.3821143333823 10.190160172874 195.69652006862
26	161082 2563 56 287708 5 93 89 0.71809538156047 13.88666089806 969.70682453936 11779.377774484
16	163645 2232 38 287708 4 93 90 223.4 807.98218143565 41938.072139933 22823047.238713
15	165877 2089 38 287708 4 93 90 23.4 223.4 8979.0053665206 1521827.3272559
vector 573 Sim2Scenario.uninfected[115].veinsmobility posx ETV
vector 574 Sim2Scenario.uninfected[115].veinsmobility posy ETV
vector 575 Sim2Scenario.uninfected[116].veinsmobility posx ETV
vector 576 Sim2Scenario.uninfected[116].veinsmobility posy ETV
vector 577 Sim2Scenario.uninfected[114].veinsmobility acceleration ETV
vector 578 Sim2Scenario.uninfected[114].veinsmobility co2emission ETV
85	168365 2235 1385 296202 15 94 80 0.973 9.117300698265 217.14119940494 874.0078343074
84	170600 2480 1385 296202 15 94 80 -3.1027161689982 2.3170462642284 10.032047156422 112.77117675227
81	173080 2355 1165 296202 14 94 81 3.586459945289 13.888777530561 965.12670272347 12374.614638074
71	175435 2198 950 296202 13 94 82 31.308606759137 623.4 28535.671185532 13946364.089261
70	177633 1790 950 296202 13 94 82 423.4 611.61286551996 36746.070264259 16678966.644626
vector 579 Sim2Scenario.uninfected[117].veinsmobility posx ETV
vector 580 Sim2Scenario.uninfected[117].veinsmobility posy ETV
vector 581 Sim2Scenario.uninfected[115].veinsmobility speed ETV
vector 582 Sim2Scenario.uninfected[116].veinsmobility speed ETV
68	179681 2283 788 303450 12 95 84 0.973 8.5892449543336 246.60428055642 1074.9254353405
67	181964 2567 788 303450 12 95 84 -4.4839815778611 2.4846721088537 11.028032586603 160.3236776973
64	184531 2463 612 303450 11 95 85 2.8004871157389 13.889001220525 983.99183072651 12265.476072652
53	186994 2006 495 303450 10 95 86 23.4 226.6 9014.4873760509 1573565.704057
52	189000 2163 495 303450 10 95 86 423.4 826.6 51794.546714723 33401845.139201
275	191163 1448 36988 303450 46 95 50 0.973 8.0379000120426 157.98203235533 733.69679355739
274	192611 1605 36988 303450 46 95 50 -3.3014193277316 2.2765604668972 10.167193330328 110.43534293693
271	194216 1555 34544 303450 45 95 51 3.7116689902899 13.883700019245 580.99450288985 7196.1847241442
262	195771 1267 32522 303450 44 95 52 623.4 812.01595273324 34301.086291349 22823541.00139
261	197038 1419 32522 303450 44 95 52 36.549499629607 426.6 15819.253614797 5667369.7800424
vector 583 Sim2Scenario.uninfected[118].veinsmobility posx ETV
vector 584 Sim2Scenario.uninfected[118].veinsmobility posy ETV
vector 585 Sim2Scenario.uninfected[115].veinsmobility acceleration ETV
vector 586 Sim2Scenario.uninfected[115].veinsmobility co2emission ETV
vector 587 Sim2Scenario.uninfected[116].veinsmobility acceleration ETV
vector 588 Sim2Scenario.uninfected[116].veinsmobility co2emission ETV
vector 589 Sim2Scenario.uninfected[117].veinsmobility speed ETV
93	198936 2258 1718 311699 16 96 81 0.973 9.005585355339 219.515459187 882.19747047859
92	201194 2504 1718 311699 16 96 81 -3.3566072737627 2.1254369586427 10.989876861329 119.26106657489
87	203698 2377 1385 311699 15 96 82 2.8112273710211 13.889966999968 962.61518019112 12297.246398069
78	206075 2413 1165 311699 14 96 83 30.66502926197 618.40219993076 26464.659133106 11700992.375589
77	208488 1624 1165 311699 14 96 83 223.4 226.6 18655.882380674 4193480.3155444
vector 590 Sim2Scenario.uninfected[119].veinsmobility posx ETV
vector 591 Sim2Scenario.uninfected[119].veinsmobility posy ETV
vector 592 Sim2Scenario.uninfected[120].veinsmobility posx ETV
vector 593 Sim2Scenario.uninfected[120].veinsmobility posy ETV
vector 594 Sim2Scenario.uninfected[117].veinsmobility acceleration ETV
vector 595 Sim2Scenario.uninfected[117].veinsmobility co2emission ETV
vector 596 Sim2Scenario.uninfected[118].veinsmobility speed ETV
288	210576 1459 42133 318843 48 97 50 0.973 8.0902475163506 154.79534967864 713.12323581301
287	212035 1600 42133 318843 48 97 50 -4.4791264709365 2.2587391584017 10.992840568632 109.37579894124
284	213635 1556 39292 318843 47 97 51 2.8774038549428 13.882082889744 568.44114952205 6998.1402870302
273	215191 1259 36988 318843 46 97 52 623.4 812.54857237544 34423.162644997 22991255.044423
272	216450 1423 36988 318843 46 97 52 626.6 818.96846866536 36249.520653133 25534042.264928
173	217873 1968 9878 318843 29 97 69 0.973 8.9691550355467 211.66760927174 975.65378262293
172	219841 2197 9878 318843 29 97 69 -4.4901593354694 2.4146982627349 10.421557909419 160.51417875691
169	222038 2130 9097 318843 28 97 70 1.0326047065217 13.88049769127 774.5665350928 9549.7729864224
159	224168 1796 8143 318843 27 97 71 237.03412886796 612.326333782 30710.388849885 13722166.15202
158	225964 1848 8143 318843 27 97 71 226.6 626.6 30496.445147103 15005894.151237
181	227812 1912 11882 318843 31 97 67 0.973 8.7270010561242 190.82788416277 823.6733067313
180	229724 2153 11882 318843 31 97 67 -3.0954097421114 2.3800471101864 9.8737439786236 113.2045822254
179	231877 2062 10947 318843 30 97 68 1.4039582790464 13.885739753996 769.38691202792 9622.1125395988
171	233939 1747 9878 318843 29 97 69 23.4 423.4 16282.479535145 5790761.5808719
170	235686 1782 9878 318843 29 97 69 241.73001692367 611.62217232544 29896.298616992 13371902.556318
vector 597 Sim2Scenario.uninfected[121].veinsmobility posx ETV
vector 598 Sim2Scenario.uninfected[121].veinsmobility posy ETV
vector 599 Sim2Scenario.uninfected[118].veinsmobility acceleration ETV
vector 600 Sim2Scenario.uninfected[118].veinsmobility co2emission ETV
vector 601 Sim2Scenario.uninfected[119].veinsmobility speed ETV
vector 602 Sim2Scenario.uninfected[120].veinsmobility speed ETV
430	237869 896 129700 327002 70 98 29 1.6236434322166 7.6529477185863 81.184010994765 308.071336587
429	238765 955 129700 327002 70 98 29 -0.11807100247359 2.1683003995894 11.316594400604 21.66459953904
426	239720 923 124240 327002 69 98 30 2.4687458555955 13.888168722638 375.86572954097 4975.6662852377
414	240643 956 119389 327002 68 98 31 237.32537365102 607.56710144061 12529.552240634 5494939.528222
413	241599 651 119389 327002 68 98 31 423.4 423.4 13125.4 5557294.36
vector 603 Sim2Scenario.uninfected[122].veinsmobility posx ETV
vector 604 Sim2Scenario.uninfected[122].veinsmobility posy ETV
vector 605 Sim2Scenario.uninfected[123].veinsmobility posx ETV
vector 606 Sim2Scenario.uninfected[123].veinsmobility posy ETV
vector 607 Sim2Scenario.uninfected[119].veinsmobility acceleration ETV
vector 608 Sim2Scenario.uninfected[119].veinsmobility co2emission ETV
vector 609 Sim2Scenario.uninfected[120].veinsmobility acceleration ETV
vector 610 Sim2Scenario.uninfected[120].veinsmobility co2emission ETV
vector 611 Sim2Scenario.uninfected[121].veinsmobility speed ETV
vector 612 Sim2Scenario.uninfected[124].veinsmobility posx ETV
vector 613 Sim2Scenario.uninfected[124].veinsmobility posy ETV
vector 614 Sim2Scenario.uninfected[121].veinsmobility acceleration ETV
vector 615 Sim2Scenario.uninfected[121].veinsmobility co2emission ETV
vector 616 Sim2Scenario.uninfected[122].veinsmobility speed ETV
vector 617 Sim2Scenario.uninfected[123].veinsmobility speed ETV
63	243258 2129 612 342767 11 100 90 0.973 8.4229152942091 205.22934693493 814.79279728955
62	245387 2874 612 342767 11 100 90 -3.2640043815773 2.3228768020884 11.407347716524 123.81005115098
57	248261 2807 495 342767 10 100 91 4.5404676035234e-014 13.887128388127 576.01851548438 6854.2724894978
48	251068 1927 378 342767 9 100 92 223.4 407.00188586426 21885.438552689 5353744.4821766
47	252995 2282 378 342767 9 100 92 423.4 812.67475458127 47305.354370099 25712053.016239
vector 618 Sim2Scenario.uninfected[125].veinsmobility posx ETV
vector 619 Sim2Scenario.uninfected[125].veinsmobility posy ETV
vector 620 Sim2Scenario.uninfected[126].veinsmobility posx ETV
vector 621 Sim2Scenario.uninfected[126].veinsmobility posy ETV
vector 622 Sim2Scenario.uninfected[122].veinsmobility acceleration ETV
vector 623 Sim2Scenario.uninfected[122].veinsmobility co2emission ETV
vector 624 Sim2Scenario.uninfected[123].veinsmobility acceleration ETV
vector 625 Sim2Scenario.uninfected[123].veinsmobility co2emission ETV
vector 626 Sim2Scenario.uninfected[124].veinsmobility speed ETV
vector 627 Sim2Scenario.uninfected[127].veinsmobility posx ETV
vector 628 Sim2Scenario.uninfected[127].veinsmobility posy ETV
vector 629 Sim2Scenario.uninfected[124].veinsmobility acceleration ETV
vector 630 Sim2Scenario.uninfected[124].veinsmobility co2emission ETV
vector 631 Sim2Scenario.uninfected[125].veinsmobility speed ETV
vector 632 Sim2Scenario.uninfected[126].veinsmobility speed ETV
vector 633 Sim2Scenario.uninfected[128].veinsmobility posx ETV
vector 634 Sim2Scenario.uninfected[128].veinsmobility posy ETV
vector 635 Sim2Scenario.uninfected[125].veinsmobility acceleration ETV
vector 636 Sim2Scenario.uninfected[125].veinsmobility co2emission ETV
vector 637 Sim2Scenario.uninfected[126].veinsmobility acceleration ETV
vector 638 Sim2Scenario.uninfected[126].veinsmobility co2emission ETV
vector 639 Sim2Scenario.uninfected[127].veinsmobility speed ETV
vector 640 Sim2Scenario.uninfected[127].veinsmobility acceleration ETV
vector 641 Sim2Scenario.uninfected[127].veinsmobility co2emission ETV
vector 642 Sim2Scenario.uninfected[128].veinsmobility speed ETV
vector 643 Sim2Scenario.uninfected[129].veinsmobility posx ETV
vector 644 Sim2Scenario.uninfected[129].veinsmobility posy ETV
vector 645 Sim2Scenario.uninfected[130].veinsmobility posx ETV
vector 646 Sim2Scenario.uninfected[130].veinsmobility posy ETV
vector 647 Sim2Scenario.uninfected[131].veinsmobility posx ETV
vector 648 Sim2Scenario.uninfected[131].veinsmobility posy ETV
vector 649 Sim2Scenario.uninfected[128].veinsmobility acceleration ETV
vector 650 Sim2Scenario.uninfected[128].veinsmobility co2emission ETV
vector 651 Sim2Scenario.uninfected[129].veinsmobility speed ETV
vector 652 Sim2Scenario.uninfected[130].veinsmobility speed ETV
vector 653 Sim2Scenario.uninfected[131].veinsmobility speed ETV
11	257694 2800 6 392563 3 106 104 0.973 8.4773945935602 316.08628767953 1448.8368225745
10	260494 3156 6 392563 3 106 104 -3.4055506688834 2.5047120018629 9.9758257053449 241.9985106264
6	263650 2926 3 392563 2 106 105 3.6013752010882 13.887143526992 1179.1184698745 14418.432945758
1	266576 2257 2 392563 1 106 106 237.8787677031 426.6 41952.809236856 16946476.418049
0	268833 2627 2 392563 1 106 106 23.4 826.6 44021.559283337 27657259.079184
256	271460 1881 29943 392563 43 106 64 0.973 7.9068071853887 185.01443433614 778.53753119157
255	273341 2065 29943 392563 43 106 64 -3.3568834548757 2.241045337352 10.24978992795 107.86964581436
251	275406 1998 28162 392563 42 106 65 3.5845294182037 13.888821300971 776.65548577171 9906.9575534285
240	277404 1697 26006 392563 41 106 66 23.4 426.6 14249.740781479 4947824.6422151
239	279101 1727 26006 392563 41 106 66 423.4 612.03923785895 31192.301440177 15021554.620196
vector 654 Sim2Scenario.uninfected[132].veinsmobility posx ETV
vector 655 Sim2Scenario.uninfected[132].veinsmobility posy ETV
vector 656 Sim2Scenario.uninfected[133].veinsmobility posx ETV
vector 657 Sim2Scenario.uninfected[133].veinsmobility posy ETV
vector 658 Sim2Scenario.uninfected[129].veinsmobility acceleration ETV
vector 659 Sim2Scenario.uninfected[129].veinsmobility co2emission ETV
vector 660 Sim2Scenario.uninfected[130].veinsmobility acceleration ETV
vector 661 Sim2Scenario.uninfected[130].veinsmobility co2emission ETV
vector 662 Sim2Scenario.uninfected[131].veinsmobility acceleration ETV
vector 663 Sim2Scenario.uninfected[131].veinsmobility co2emission ETV
vector 664 Sim2Scenario.uninfected[134].veinsmobility posx ETV
vector 665 Sim2Scenario.uninfected[134].veinsmobility posy ETV
vector 666 Sim2Scenario.uninfected[132].veinsmobility speed ETV
vector 667 Sim2Scenario.uninfected[133].veinsmobility speed ETV
217	281771 2034 19237 409044 37 108 72 0.973 9.0352919044077 214.6571883522 957.70348110551
216	283805 2290 19237 409044 37 108 72 -3.2647442264331 2.4045872032712 4.7287388789728 171.67266225111
209	286095 2237 17979 409044 36 108 73 3.1944908684604 13.885782441751 770.77344698221 9051.8443661646
202	288332 2108 16517 409044 35 108 74 231.62170126524 426.6 25921.425093732 9446868.2570166
201	290440 1761 16517 409044 35 108 74 423.4 626.6 37026.603187033 19121769.892519
vector 668 Sim2Scenario.uninfected[135].veinsmobility posx ETV
vector 669 Sim2Scenario.uninfected[135].veinsmobility posy ETV
vector 670 Sim2Scenario.uninfected[132].veinsmobility acceleration ETV
vector 671 Sim2Scenario.uninfected[132].veinsmobility co2emission ETV
vector 672 Sim2Scenario.uninfected[133].veinsmobility acceleration ETV
vector 673 Sim2Scenario.uninfected[133].veinsmobility co2emission ETV
vector 674 Sim2Scenario.uninfected[134].veinsmobility speed ETV
vector 675 Sim2Scenario.uninfected[136].veinsmobility posx ETV
vector 676 Sim2Scenario.uninfected[136].veinsmobility posy ETV
vector 677 Sim2Scenario.uninfected[137].veinsmobility posx ETV
vector 678 Sim2Scenario.uninfected[137].veinsmobility posy ETV
vector 679 Sim2Scenario.uninfected[134].veinsmobility acceleration ETV
vector 680 Sim2Scenario.uninfected[134].veinsmobility co2emission ETV
vector 681 Sim2Scenario.uninfected[135].veinsmobility speed ETV
188	293144 2203 12910 425620 32 110 79 0.973 8.3348038750769 221.09349011279 973.23253834787
187	295347 2446 12910 425620 32 110 79 -4.3729331420414 2.3261082367529 10.870275154163 164.18822368665
182	297793 2352 11882 425620 31 110 80 0 13.885490787663 777.22780934907 9556.2890730351
176	300145 1857 10947 425620 30 110 81 237.45192297499 423.4 32413.386763016 13193856.562656
175	302002 2253 10947 425620 30 110 81 235.9050985997 823.4 47150.390679472 30309815.296776
283	304255 1875 39292 425620 47 110 64 0.973 8.2863653720609 182.3370290046 789.78569987009
282	306130 2082 39292 425620 47 110 64 -3.1616858598629 2.1675996047514 9.6848078249621 94.581114584463
277	308212 2002 36988 425620 46 110 65 3.5881889461959 13.885325684922 770.20399878077 9769.8801976204
270	310214 1323 34544 425620 45 110 66 23.4 26.6 1603.169261219 39075.048596849
269	311537 2034 34544 425620 45 110 66 37.090029336312 619.18463060951 25687.473629152 12001692.252296
vector 682 Sim2Scenario.uninfected[138].veinsmobility posx ETV
vector 683 Sim2Scenario.uninfected[138].veinsmobility posy ETV
vector 684 Sim2Scenario.uninfected[135].veinsmobility acceleration ETV
vector 685 Sim2Scenario.uninfected[135].veinsmobility co2emission ETV
vector 686 Sim2Scenario.uninfected[136].veinsmobility speed ETV
vector 687 Sim2Scenario.uninfected[137].veinsmobility speed ETV
vector 688 Sim2Scenario.uninfected[139].veinsmobility posx ETV
vector 689 Sim2Scenario.uninfected[139].veinsmobility posy ETV
vector 690 Sim2Scenario.uninfected[136].veinsmobility acceleration ETV
vector 691 Sim2Scenario.uninfected[136].veinsmobility co2emission ETV
vector 692 Sim2Scenario.uninfected[137].veinsmobility acceleration ETV
vector 693 Sim2Scenario.uninfected[137].veinsmobility co2emission ETV
vector 694 Sim2Scenario.uninfected[138].veinsmobility speed ETV
91	314451 2594 1718 442751 16 112 97 0.973 8.8081324178564 280.20974676637 1273.5651187736
90	317045 2982 1718 442751 16 112 97 -3.3077459215076 2.4334435076191 11.612045018169 220.23746466568
86	320027 2873 1385 442751 15 112 98 3.7967056714059e-011 13.883628042464 971.66651274604 11605.134948488
76	322900 2480 1165 442751 14 112 99 230.85538498523 617.249057304 39714.828300687 16617008.718482
75	325380 2377 1165 442751 14 112 99 223.4 623.4 37980.373357086 17174155.768628
vector 695 Sim2Scenario.uninfected[140].veinsmobility posx ETV
vector 696 Sim2Scenario.uninfected[140].veinsmobility posy ETV
vector 697 Sim2Scenario.uninfected[138].veinsmobility acceleration ETV
vector 698 Sim2Scenario.uninfected[138].veinsmobility co2emission ETV
vector 699 Sim2Scenario.uninfected[139].veinsmobility speed ETV
43	328093 2593 300 450445 8 113 106 0.973 8.4254757763421 237.50967856095 898.38410161046
42	330686 3259 300 450445 8 113 106 -3.1662148918482 2.5253087746189 -0.065799543261641 157.88189213978
39	333945 3154 192 450445 7 113 107 0 13.886491262235 782.39777963861 9400.2014364214
28	337099 2716 137 450445 6 113 108 33.448864484083 426.6 32330.934045228 11102895.391569
27	339815 2303 137 450445 6 113 108 23.4 226.6 15260.20715166 3112714.1431638
vector 700 Sim2Scenario.uninfected[139].veinsmobility acceleration ETV
vector 701 Sim2Scenario.uninfected[139].veinsmobility co2emission ETV
vector 702 Sim2Scenario.uninfected[140].veinsmobility speed ETV
258	342326 2056 29943 460275 43 114 72 0.973 8.293108867497 213.34263205089 971.53329791283
257	344382 2329 29943 460275 43 114 72 -3.2333578341402 2.0790729646664 9.6841659935903 148.59508382807
252	346711 2251 28162 460275 42 114 73 2.9831529932642 13.886647148314 767.86601200247 9143.8543246499
242	348962 1726 26006 460275 41 114 74 423.4 615.97884549094 32917.692333345 14800871.825442
241	350688 2133 26006 460275 41 114 74 231.321214232 623.4 33009.858345208 16184386.805732
198	352821 2375 15152 460275 34 114 81 0.973 9.1042746217078 236.21573708351 1033.0660756814
197	355196 2614 15152 460275 34 114 81 -4.5 2.3753580927988 10.199337833301 151.93607865389
194	357810 2515 13844 460275 33 114 82 3.5716029003927 13.889009976145 972.24113850061 12316.781433426
186	360325 2216 12910 460275 32 114 83 33.575574946978 423.4 27614.269121473 10265257.402661
185	362541 2065 12910 460275 32 114 83 26.6 423.4 15981.377855141 5356566.939647
80	364606 2818 1165 460275 14 114 101 0.973 8.7946447818942 275.00664417226 1129.9289409919
79	367424 3146 1165 460275 14 114 101 -3.2949736082834 2.2698024579976 10.271626852243 169.94150689666
74	370570 2972 950 460275 13 114 102 1.019953777672 13.88907039773 1155.7477429178 14602.407312441
66	373542 2718 788 460275 12 114 103 230.86356699317 826.6 61340.393263484 41774788.196402
65	376260 2358 788 460275 12 114 103 223.4 418.46003175765 26799.617903901 7373414.1594328
vector 703 Sim2Scenario.uninfected[141].veinsmobility posx ETV
vector 704 Sim2Scenario.uninfected[141].veinsmobility posy ETV
vector 705 Sim2Scenario.uninfected[142].veinsmobility posx ETV
vector 706 Sim2Scenario.uninfected[142].veinsmobility posy ETV
vector 707 Sim2Scenario.uninfected[143].veinsmobility posx ETV
vector 708 Sim2Scenario.uninfected[143].veinsmobility posy ETV
vector 709 Sim2Scenario.uninfected[140].veinsmobility acceleration ETV
vector 710 Sim2Scenario.uninfected[140].veinsmobility co2emission ETV
138	379145 2622 5214 467656 23 115 93 0.973 8.2423435149179 254.33729255446 1074.3918542261
137	381767 3001 5214 467656 23 115 93 -4.4981502418788 2.5998796383338 7.142978395144 179.45084891614
132	384768 2889 4558 467656 22 115 94 4.6726124368992e-014 13.884254583642 978.74653834439 12070.069304131
123	387657 2455 3963 467656 21 115 95 23.4 426.6 25094.072630974 9092472.6464158
122	390112 2389 3963 467656 21 115 95 23.4 226.6 11250.293074807 2051547.8359581
vector 711 Sim2Scenario.uninfected[144].veinsmobility posx ETV
vector 712 Sim2Scenario.uninfected[144].veinsmobility posy ETV
vector 713 Sim2Scenario.uninfected[141].veinsmobility speed ETV
vector 714 Sim2Scenario.uninfected[142].veinsmobility speed ETV
vector 715 Sim2Scenario.uninfected[143].veinsmobility speed ETV
vector 716 Sim2Scenario.uninfected[145].veinsmobility posx ETV
vector 717 Sim2Scenario.uninfected[145].veinsmobility posy ETV
vector 718 Sim2Scenario.uninfected[146].veinsmobility posx ETV
vector 719 Sim2Scenario.uninfected[146].veinsmobility posy ETV
vector 720 Sim2Scenario.uninfected[141].veinsmobility acceleration ETV
vector 721 Sim2Scenario.uninfected[141].veinsmobility co2emission ETV
vector 722 Sim2Scenario.uninfected[142].veinsmobility acceleration ETV
vector 723 Sim2Scenario.uninfected[142].veinsmobility co2emission ETV
vector 724 Sim2Scenario.uninfected[143].veinsmobility acceleration ETV
vector 725 Sim2Scenario.uninfected[143].veinsmobility co2emission ETV
vector 726 Sim2Scenario.uninfected[144].veinsmobility speed ETV
vector 727 Sim2Scenario.uninfected[144].veinsmobility acceleration ETV
vector 728 Sim2Scenario.uninfected[144].veinsmobility co2emission ETV
vector 729 Sim2Scenario.uninfected[145].veinsmobility speed ETV
vector 730 Sim2Scenario.uninfected[146].veinsmobility speed ETV
327	393847 1906 62863 494959 55 118 64 0.973 8.4020549562894 185.46905145002 791.05140073701
326	395753 2105 62863 494959 55 118 64 -3.297683697284 2.2362598082586 9.9188379308376 108.7830242555
321	397858 2017 59786 494959 54 118 65 3.8920789599555 13.88484408607 771.66247637896 9803.3383141069
313	399875 1880 56301 494959 53 118 66 23.4 404.71488110221 8880.9667944857 2051137.6028028
312	401755 1591 56301 494959 53 118 66 423.4 626.6 33528.953839784 17586643.769064
vector 731 Sim2Scenario.uninfected[147].veinsmobility posx ETV
vector 732 Sim2Scenario.uninfected[147].veinsmobility posy ETV
vector 733 Sim2Scenario.uninfected[145].veinsmobility acceleration ETV
vector 734 Sim2Scenario.uninfected[145].veinsmobility co2emission ETV
vector 735 Sim2Scenario.uninfected[146].veinsmobility acceleration ETV
vector 736 Sim2Scenario.uninfected[146].veinsmobility co2emission ETV
125	403760 2589 3963 502313 21 119 99 0.973 8.362029401962 237.74012711591 932.33423596576
124	406349 3225 3963 502313 21 119 99 -4.5 2.0503719433071 0.75617682004709 173.92999798259
119	409574 3173 3418 502313 20 119 100 4.5361602523322e-014 13.883958775727 762.61787983055 8855.9671357033
108	412747 2305 2883 502313 19 119 101 623.4 826.6 72001.736489117 52235677.728937
107	415052 2763 2883 502313 19 119 101 235.3492547591 618.37744804725 39877.714157042 17350376.76474
vector 737 Sim2Scenario.uninfected[148].veinsmobility posx ETV
vector 738 Sim2Scenario.uninfected[148].veinsmobility posy ETV
vector 739 Sim2Scenario.uninfected[147].veinsmobility speed ETV
436	418008 1491 134820 513006 71 120 50 0.973 8.64719708868 155.10085619405 714.71856272688
435	419499 1644 134820 513006 71 120 50 -4.4647754509677 2.1610851900722 9.8126421753052 106.29166082809
431	421143 1583 129700 513006 70 120 51 3.4922831745565 13.884362075937 575.94378578668 7118.186108149
421	422726 1481 124240 513006 69 120 52 630.98469076523 826.6 39219.87163402 29846876.573828
420	424207 1242 124240 513006 69 120 52 23.4 214.41868304285 2712.4218888692 285774.29890603
306	425449 2056 50014 513006 51 120 70 0.973 8.0362151857638 193.62679461594 810.27435392691
305	427505 2269 50014 513006 51 120 70 -4.5 2.4247673762776 3.2859501311422 149.40846635362
302	429774 2200 47461 513006 50 120 71 0.81083399226374 13.887791936425 775.51448538595 9655.5032261817
293	431974 1855 44507 513006 49 120 72 423.4 823.4 44040.592571641 29020736.966416
292	433829 1935 44507 513006 49 120 72 437.16687985809 816.67517665906 44543.292914509 28228233.872005
vector 740 Sim2Scenario.uninfected[149].veinsmobility posx ETV
vector 741 Sim2Scenario.uninfected[149].veinsmobility posy ETV
vector 742 Sim2Scenario.uninfected[147].veinsmobility acceleration ETV
vector 743 Sim2Scenario.uninfected[147].veinsmobility co2emission ETV
vector 744 Sim2Scenario.uninfected[148].veinsmobility speed ETV
vector 745 Sim2Scenario.uninfected[150].veinsmobility posx ETV
vector 746 Sim2Scenario.uninfected[150].veinsmobility posy ETV
vector 747 Sim2Scenario.uninfected[151].veinsmobility posx ETV
vector 748 Sim2Scenario.uninfected[151].veinsmobility posy ETV
vector 749 Sim2Scenario.uninfected[152].veinsmobility posx ETV
vector 750 Sim2Scenario.uninfected[152].veinsmobility posy ETV
vector 751 Sim2Scenario.uninfected[148].veinsmobility acceleration ETV
vector 752 Sim2Scenario.uninfected[148].veinsmobility co2emission ETV
vector 753 Sim2Scenario.uninfected[149].veinsmobility speed ETV
264	436692 2224 32522 530589 44 122 79 0.973 9.4860855965687 226.18594220282 1025.988176593
263	438916 2540 32522 530589 44 122 79 -3.2237423188853 2.3978703360073 11.347918826007 170.35551646769
259	441456 2429 29943 530589 43 122 80 0 13.886406151389 776.7820789114 9412.7516672317
245	443885 2158 28162 530589 42 122 81 37.325276896544 226.6 14963.289714012 3081671.3138243
244	446043 2189 28162 530589 42 122 81 423.4 826.6 47839.452615363 30492528.477718
vector 754 Sim2Scenario.uninfected[153].veinsmobility posx ETV
vector 755 Sim2Scenario.uninfected[153].veinsmobility posy ETV
vector 756 Sim2Scenario.uninfected[149].veinsmobility acceleration ETV
vector 757 Sim2Scenario.uninfected[149].veinsmobility co2emission ETV
vector 758 Sim2Scenario.uninfected[150].veinsmobility speed ETV
vector 759 Sim2Scenario.uninfected[151].veinsmobility speed ETV
vector 760 Sim2Scenario.uninfected[152].veinsmobility speed ETV
18	448698 3303 38 538498 4 123 120 0.973 8.4273991921726 333.8396329854 1416.9899284753
17	452001 3687 38 538498 4 123 120 -4.3074248418018 2.5937903032522 11.128790627153 220.79858973184
14	455688 3506 6 538498 3 123 121 0 13.88902522794 1367.6451210874 17287.484971261
5	459194 2880 3 538498 2 123 122 37.450599542095 826.6 48807.914921175 27434437.376223
4	462074 2799 3 538498 2 123 122 223.4 623.4 43969.859900072 18708806.036045
vector 761 Sim2Scenario.uninfected[154].veinsmobility posx ETV
vector 762 Sim2Scenario.uninfected[154].veinsmobility posy ETV
vector 763 Sim2Scenario.uninfected[150].veinsmobility acceleration ETV
vector 764 Sim2Scenario.uninfected[150].veinsmobility co2emission ETV
vector 765 Sim2Scenario.uninfected[151].veinsmobility acceleration ETV
vector 766 Sim2Scenario.uninfected[151].veinsmobility co2emission ETV
vector 767 Sim2Scenario.uninfected[152].veinsmobility acceleration ETV
vector 768 Sim2Scenario.uninfected[152].veinsmobility co2emission ETV
vector 769 Sim2Scenario.uninfected[153].veinsmobility speed ETV
vector 770 Sim2Scenario.uninfected[155].veinsmobility posx ETV
vector 771 Sim2Scenario.uninfected[155].veinsmobility posy ETV
vector 772 Sim2Scenario.uninfected[153].veinsmobility acceleration ETV
vector 773 Sim2Scenario.uninfected[153].veinsmobility co2emission ETV
vector 774 Sim2Scenario.uninfected[154].veinsmobility speed ETV
418	465831 1668 119389 556946 68 125 58 0.973 8.6193654655154 163.47256031604 726.93550366076
417	467499 1843 119389 556946 68 125 58 -3.2166645572222 2.1273453312833 10.886877445844 104.7994770403
412	469342 1785 114077 556946 67 125 59 0 13.889069033219 578.93631838738 7180.5822152952
401	471127 1623 109642 556946 66 125 60 226.6 616.41005030094 19574.300424664 7343370.4290554
400	472750 1543 109642 556946 66 125 60 37.448881923073 223.4 11437.666239837 2384694.2409231
vector 775 Sim2Scenario.uninfected[156].veinsmobility posx ETV
vector 776 Sim2Scenario.uninfected[156].veinsmobility posy ETV
vector 777 Sim2Scenario.uninfected[154].veinsmobility acceleration ETV
vector 778 Sim2Scenario.uninfected[154].veinsmobility co2emission ETV
vector 779 Sim2Scenario.uninfected[155].veinsmobility speed ETV
254	474629 2456 29943 567431 43 126 84 0.973 8.5965406425052 242.45599882825 1048.267677861
253	477085 2743 29943 567431 43 126 84 -3.3512352755948 2.5389382350957 11.580375815437 158.48204545387
250	479828 2629 28162 567431 42 126 85 2.2352183707098 13.889189593685 972.8075244506 12170.441221992
238	482457 2489 26006 567431 41 126 86 230.70674133858 626.6 40008.59040344 20240050.431218
237	484946 1975 26006 567431 41 126 86 23.4 226.6 7133.8238858569 1203472.0935822
vector 780 Sim2Scenario.uninfected[157].veinsmobility posx ETV
vector 781 Sim2Scenario.uninfected[157].veinsmobility posy ETV
vector 782 Sim2Scenario.uninfected[155].veinsmobility acceleration ETV
vector 783 Sim2Scenario.uninfected[155].veinsmobility co2emission ETV
vector 784 Sim2Scenario.uninfected[156].veinsmobility speed ETV
395	487257 1927 104811 575670 65 127 63 0.973 8.0674431706579 165.84374647128 605.66276417815
394	489184 2093 104811 575670 65 127 63 -3.2344403735238 2.0554353451426 10.58846290466 70.266012904282
389	491277 2000 100292 575670 64 127 64 1.9882103581665 13.889111887235 769.66441179301 10017.963367619
381	493277 2035 95163 575670 63 127 65 37.968673586738 619.11844038629 25931.81692678 12340968.163545
380	495312 1422 95163 575670 63 127 65 423.4 426.6 27666.032307641 11775666.534777
vector 785 Sim2Scenario.uninfected[158].veinsmobility posx ETV
vector 786 Sim2Scenario.uninfected[158].veinsmobility posy ETV
vector 787 Sim2Scenario.uninfected[156].veinsmobility acceleration ETV
vector 788 Sim2Scenario.uninfected[156].veinsmobility co2emission ETV
vector 789 Sim2Scenario.uninfected[157].veinsmobility speed ETV
vector 790 Sim2Scenario.uninfected[159].veinsmobility posx ETV
vector 791 Sim2Scenario.uninfected[159].veinsmobility posy ETV
vector 792 Sim2Scenario.uninfected[160].veinsmobility posx ETV
vector 793 Sim2Scenario.uninfected[160].veinsmobility posy ETV
vector 794 Sim2Scenario.uninfected[161].veinsmobility posx ETV
vector 795 Sim2Scenario.uninfected[161].veinsmobility posy ETV
vector 796 Sim2Scenario.uninfected[157].veinsmobility acceleration ETV
vector 797 Sim2Scenario.uninfected[157].veinsmobility co2emission ETV
vector 798 Sim2Scenario.uninfected[158].veinsmobility speed ETV
300	497662 2384 47461 594033 50 129 80 0.973 9.0732549336809 231.64774076059 1000.8373479587
299	500046 2629 47461 594033 50 129 80 -4.4874024592014 2.2905364075257 10.70169201651 143.01742968216
296	502675 2517 44507 594033 49 129 81 3.1473595246519 13.887959564757 972.60406546692 12385.876754338
286	505192 2211 42133 594033 48 129 82 233.88288007576 823.4 46722.03143762 29605861.67058
285	507403 2110 42133 594033 48 129 82 426.6 626.6 41852.918231772 21943586.328539
vector 799 Sim2Scenario.uninfected[162].veinsmobility posx ETV
vector 800 Sim2Scenario.uninfected[162].veinsmobility posy ETV
vector 801 Sim2Scenario.uninfected[158].veinsmobility acceleration ETV
vector 802 Sim2Scenario.uninfected[158].veinsmobility co2emission ETV
vector 803 Sim2Scenario.uninfected[159].veinsmobility speed ETV
vector 804 Sim2Scenario.uninfected[160].veinsmobility speed ETV
vector 805 Sim2Scenario.uninfected[161].veinsmobility speed ETV
331	509979 2194 62863 604198 55 130 76 0.973 8.4029174998084 198.97681511543 813.79836446337
330	512173 2495 62863 604198 55 130 76 -4.4698890113318 2.139419865387 3.4479053824071 145.93573308911
323	514668 2405 59786 604198 54 130 77 0.48271050161663 13.887378807173 777.75313290892 9444.9693024107
317	517073 1988 56301 604198 53 130 78 26.6 426.6 19693.977429863 7251083.6248684
316	519061 2136 56301 604198 53 130 78 33.325993288422 413.99701106613 18823.306430782 5329910.5671714
vector 806 Sim2Scenario.uninfected[159].veinsmobility acceleration ETV
vector 807 Sim2Scenario.uninfected[159].veinsmobility co2emission ETV
vector 808 Sim2Scenario.uninfected[160].veinsmobility acceleration ETV
vector 809 Sim2Scenario.uninfected[160].veinsmobility co2emission ETV
vector 810 Sim2Scenario.uninfected[161].veinsmobility acceleration ETV
vector 811 Sim2Scenario.uninfected[161].veinsmobility co2emission ETV
vector 812 Sim2Scenario.uninfected[162].veinsmobility speed ETV
311	521691 2411 53422 613305 52 131 80 0.973 8.6918701204058 217.49938819881 864.50359435437
310	524102 2637 53422 613305 52 131 80 -3.2319810109113 2.4877947347797 10.153830041872 112.00020953881
307	526739 2511 50014 613305 51 131 81 3.608730527705 13.889995765085 970.34541932708 12463.765913363
298	529250 2264 47461 613305 50 131 82 431.0470254013 826.6 55454.591796173 39298550.920882
297	531514 2057 47461 613305 50 131 82 223.4 613.80583879301 24105.45671697 8191193.7912948
vector 813 Sim2Scenario.uninfected[163].veinsmobility posx ETV
vector 814 Sim2Scenario.uninfected[163].veinsmobility posy ETV
vector 815 Sim2Scenario.uninfected[164].veinsmobility posx ETV
vector 816 Sim2Scenario.uninfected[164].veinsmobility posy ETV
vector 817 Sim2Scenario.uninfected[162].veinsmobility acceleration ETV
vector 818 Sim2Scenario.uninfected[162].veinsmobility co2emission ETV
196	533970 2770 15152 623950 34 132 99 0.973 8.8051900425192 272.69458830659 1214.3466999335
195	536740 3241 15152 623950 34 132 99 -4.1790777765494 2.1340597666055 1.5046666705985 233.82419672654
193	539981 3137 13844 623950 33 132 100 4.5423012590366e-014 13.886186634593 962.76012625607 11669.928853119
184	543118 2497 12910 623950 32 132 101 426.6 823.4 60618.350952867 38692810.493285
183	545615 2749 12910 623950 32 132 101 26.6 412.62512122278 17660.502972828 4266819.2871757
vector 819 Sim2Scenario.uninfected[163].veinsmobility speed ETV
vector 820 Sim2Scenario.uninfected[164].veinsmobility speed ETV
vector 821 Sim2Scenario.uninfected[163].veinsmobility acceleration ETV
vector 822 Sim2Scenario.uninfected[163].veinsmobility co2emission ETV
vector 823 Sim2Scenario.uninfected[164].veinsmobility acceleration ETV
vector 824 Sim2Scenario.uninfected[164].veinsmobility co2emission ETV
281	548780 2569 39292 643484 47 134 88 0.973 8.7119338639284 243.55776690298 1042.249505528
280	551349 2889 39292 643484 47 134 88 -4.4006763291759 2.1333165338669 9.8122416299573 155.62897165607
[...]
14772	53981753 1291 34151372 34600654 2366 2400 35 437.45022817918 618.33836727066 18577.124238855 9993191.7489491
14788	53983044 1143 34187651 34600654 2369 2400 32 0.973 7.5728849976428 103.61588479419 486.41319468916
14787	53984187 1225 34187651 34600654 2369 2400 32 -3.325897104656 2.1174845480174 11.430620606659 65.935482685163
14784	53985412 1219 34176555 34600654 2368 2400 33 2.4257741811624 13.883937836487 364.06398309433 4452.7227397384
14776	53986631 1068 34162405 34600654 2367 2400 34 449.77066877351 623.4 20000.056778738 11864686.04872
14775	53987699 1101 34162405 34600654 2367 2400 34 26.6 212.67429228636 2857.3337722753 403435.56115511
14795	53988800 1095 34202005 34600654 2370 2400 31 0.973 7.8085135201509 100.78681602523 473.98161005659
14794	53989895 1171 34202005 34600654 2370 2400 31 -3.1754835679033 2.0189713089517 10.342160650712 65.135881070144
14789	53991066 1179 34187651 34600654 2369 2400 32 3.4145528869807 13.88876831623 336.14420197524 4015.9633861648
14781	53992245 1218 34176555 34600654 2368 2400 33 637.96994060083 818.74122564423 24353.292985118 18088158.429724
14780	53993463 901 34176555 34600654 2368 2400 33 623.4 626.6 20616.372516237 12879923.511084
14810	53994364 1028 34228420 34600654 2372 2400 29 0.973 8.5992484810943 98.849034861052 485.71778157395
14809	53995392 1114 34228420 34600654 2372 2400 29 -3.1260442433853 2.4255759670585 10.982787685328 66.825867845241
14801	53996506 1104 34213541 34600654 2371 2400 30 2.8692484164107 13.889052965005 332.00468949126 4056.8234601751
14791	53997610 1033 34202005 34600654 2370 2400 31 623.4 812.55055727967 21285.708570279 14771598.634326
14790	53998643 967 34202005 34600654 2370 2400 31 486.38808174611 626.6 18626.280704733 11247892.521734
14828	53999610 969 34255417 34600654 2374 2400 27 0.973 8.8782228658569 92.094454415651 457.1655516934
14827	54000579 1041 34255417 34600654 2374 2400 27 -4.4465392567683 2.2258572527836 10.834029694883 59.9764953243
14819	54001620 1033 34240499 34600654 2373 2400 28 2.9692889669736 13.863596222955 321.89533820794 3997.2146300912
14806	54002653 959 34228420 34600654 2372 2400 29 437.4482587992 623.4 16200.184085568 9194271.4379132
14805	54003612 902 34228420 34600654 2372 2400 29 290.85316576893 423.4 11559.971672404 4655748.7550442
14812	54004514 1020 34228420 34600654 2372 2400 29 0.973 7.3755487990019 75.783971306773 289.01469550236
14811	54005534 1120 34228420 34600654 2372 2400 29 -2.146305297368 2.0685681614606 4.4015630808423 31.04375132555
14802	54006654 1108 34213541 34600654 2371 2400 30 2.9102703624476 13.88991944273 353.29952185382 4458.8714711515
14793	54007762 1147 34202005 34600654 2370 2400 31 261.95976245484 612.54942178306 13824.2538549 6578724.6846673
14792	54008909 837 34202005 34600654 2370 2400 31 226.6 226.6 7024.6 1591774.36
14817	54009746 1003 34240499 34600654 2373 2400 28 0.973 7.9951060562167 97.132969508018 473.71612111506
14816	54010749 1070 34240499 34600654 2373 2400 28 -4.4731506500207 2.1515632464411 10.54359815987 78.65295227146
14813	54011819 1070 34228420 34600654 2372 2400 29 3.3309323357447 13.881879072285 324.41134566047 3991.0008931956
14798	54012889 989 34213541 34600654 2371 2400 30 637.67368439295 823.4 22864.229272287 17571949.483337
14797	54013878 940 34213541 34600654 2371 2400 30 689.35360436356 823.4 23960.356816358 19186131.283313
14830	54014818 946 34255417 34600654 2374 2400 27 0.973 9.4807329705137 92.823337698459 481.22049188916
14829	54015764 1032 34255417 34600654 2374 2400 27 -3.1950734733465 2.2476782954088 10.102922845701 66.989976111498
14820	54016796 1030 34240499 34600654 2373 2400 28 3.5032364802795 13.882768490023 285.08971379468 3339.2384891904
14808	54017826 1070 34228420 34600654 2372 2400 29 31.56197632368 212.02178445312 3061.1385126202 426923.20261986
14807	54018896 803 34228420 34600654 2372 2400 29 623.4 626.6 18139.643468645 11346501.846674
14833	54019699 961 34267509 34600654 2375 2400 26 1.7216865015542 8.3897153532802 74.304020832737 298.78455856358
14832	54020660 1015 34267509 34600654 2375 2400 26 -0.088962916869205 2.1949468934163 9.7587465800583 19.237455473808
14831	54021675 996 34255417 34600654 2374 2400 27 4.0546957407165 13.886015814836 344.46228787503 4569.105013254
14815	54022671 756 34240499 34600654 2373 2400 28 823.4 823.4 23055.2 18983651.68
14814	54023427 1033 34240499 34600654 2373 2400 28 476.4724548023 815.63322445471 18482.460260566 12521910.504549
14839	54024460 850 34281863 34600654 2376 2400 25 0.973 8.0435297550696 72.049678588298 318.45093173244
14838	54025310 956 34281863 34600654 2376 2400 25 -3.3321804313524 2.2462753110184 5.6094593271209 71.497592136363
14834	54026266 964 34267509 34600654 2375 2400 26 0.26000000000002 13.874654635724 204.20964441359 2251.2815651995
14822	54027230 779 34255417 34600654 2374 2400 27 823.4 826.6 22301.236588616 18420224.310468
14821	54028009 995 34255417 34600654 2374 2400 27 437.44586483157 619.36650703141 14839.485187875 8281333.787765
14841	54029004 885 34281863 34600654 2376 2400 25 0.973 8.9492301669132 91.487099381182 476.69533058919
14840	54029889 953 34281863 34600654 2376 2400 25 -3.1227570696438 2.5694338293769 10.959320566471 70.046711828411
14835	54030842 959 34267509 34600654 2375 2400 26 2.9111254506834 13.879970157121 277.02878079628 3302.2495415297
14824	54031801 819 34255417 34600654 2374 2400 27 744.54662914033 826.6 22018.06739409 17969164.860668
14823	54032620 939 34255417 34600654 2374 2400 27 33.453399936374 226.6 4091.2061244412 762976.11630744
14865	54033559 724 34335339 34600654 2380 2400 21 0.973 7.6080206783761 66.828370648931 304.2883106659
14864	54034283 800 34335339 34600654 2380 2400 21 -2.6733905988139 2.1535059862544 6.159161411149 52.357999307914
14859	54035083 812 34320778 34600654 2379 2400 22 3.0784418498608 13.884037091713 205.23100458527 2210.8809888619
14848	54035895 650 34308301 34600654 2378 2400 23 226.6 244.41235571121 5241.8988822659 1195049.5086953
14847	54036545 830 34308301 34600654 2378 2400 23 237.54307834344 423.4 7825.9582363957 2767635.3789619
14850	54037375 805 34308301 34600654 2378 2400 23 0.973 8.1408202051175 85.645270455957 461.22146529556
14849	54038180 873 34308301 34600654 2378 2400 23 -3.1457788472008 2.3036634883936 10.058835606748 64.325893941014
14846	54039053 886 34294302 34600654 2377 2400 24 3.8222234486829 13.881059055431 247.76532843447 2863.6910910845
14837	54039939 875 34281863 34600654 2376 2400 25 637.97990857079 823.4 18753.72498407 14187062.241262
14836	54040814 743 34281863 34600654 2376 2400 25 564.83528700709 623.4 15412.481478788 9507621.6297761
14856	54041557 772 34320778 34600654 2379 2400 22 0.973 8.3390368754348 84.1604468509 451.07896611671
14855	54042329 837 34320778 34600654 2379 2400 22 -3.1970637238785 2.5369669590169 9.657158857926 66.738437510592
14851	54043166 848 34308301 34600654 2378 2400 23 3.440597520739 13.886380492584 243.19692029113 2851.8210350137
14843	54044014 844 34294302 34600654 2377 2400 24 423.4 611.62622759701 11993.337777686 6109430.8649529
14842	54044858 718 34294302 34600654 2377 2400 24 173.23640638546 226.6 5291.6069111459 1171310.3087216
14858	54045576 723 34320778 34600654 2379 2400 22 0.973 8.1326981202339 57.207496472953 242.73217259742
14857	54046299 846 34320778 34600654 2379 2400 22 -3.2438962811175 1.9236028983467 -2.4926017664173 54.369542140045
14852	54047145 842 34308301 34600654 2378 2400 23 0 13.878757807086 180.29780252302 2072.8576475996
14845	54047987 648 34294302 34600654 2377 2400 24 623.4 623.4 14961.6 9327061.44
14844	54048635 872 34294302 34600654 2377 2400 24 232.301 412.67437479119 7440.5416496056 2418766.7015631
14878	54049507 649 34362790 34600654 2382 2400 19 0.973 7.9159744756566 55.323301567493 249.38223778805
14877	54050156 720 34362790 34600654 2382 2400 19 -3.2226599086036 1.8781486326829 0.54589449455091 53.145222833089
14871	54050876 737 34348170 34600654 2381 2400 20 1.6988930010265 13.876907413616 176.96851289592 1988.0475073712
14861	54051613 774 34335339 34600654 2380 2400 21 36.652228392174 212.54876181384 2536.7866378023 393058.76612223
14860	54052387 567 34335339 34600654 2380 2400 21 426.6 426.6 8958.6 3821738.76
14870	54052954 688 34348170 34600654 2381 2400 20 0.973 8.2967829945677 60.306124080294 270.82957751586
14869	54053642 750 34348170 34600654 2381 2400 20 -3.1894957660367 2.0441283100354 3.3678821985277 52.888112784061
14866	54054392 775 34335339 34600654 2380 2400 21 3.4254835649843 13.881271870835 195.15771279229 2169.3188168935
14854	54055167 604 34320778 34600654 2379 2400 22 623.4 626.6 13776.239014183 8626603.4512221
14853	54055771 812 34320778 34600654 2379 2400 22 437.67560226974 618.75852127407 11821.972447071 6449396.5130536
14880	54056583 671 34362790 34600654 2382 2400 19 0.973 8.0752436668577 65.40254907229 322.95110795492
14879	54057254 719 34362790 34600654 2382 2400 19 -4.3767021850535 2.0717338481033 6.9616364652557 51.762005585635
14872	54057973 733 34348170 34600654 2381 2400 20 3.5997866764538 13.866224090538 215.42821985996 2541.5179059586
14863	54058706 590 34335339 34600654 2380 2400 21 26.6 50.779538699912 605.22872075714 18182.795170551
14862	54059296 745 34335339 34600654 2380 2400 21 33.963157520024 223.4 2810.4909737198 476485.94546101
14883	54060041 612 34374856 34600654 2383 2400 18 0.973 7.925396853105 53.804932623012 250.7089887872
14882	54060653 690 34374856 34600654 2383 2400 18 -3.1778360506157 2.0814241079963 -0.76226525152355 54.180900139994
14881	54061343 698 34362790 34600654 2382 2400 19 1.4413263366289 13.87626556274 181.62375151033 2117.8854367682
14868	54062041 729 34348170 34600654 2381 2400 20 237.3 418.38885961301 6494.0095708588 2193567.5991435
14867	54062770 550 34348170 34600654 2381 2400 20 223.4 223.79257307534 4468.3925730753 998326.75576368
14887	54063320 587 34389507 34600654 2384 2400 17 0.973 8.358862278804 53.15960465636 257.81336832856
14886	54063907 652 34389507 34600654 2384 2400 17 -4.4771106045786 2.150648516647 3.4481939141785 43.77274465804
14884	54064559 664 34374856 34600654 2383 2400 18 3.7298376392124 13.880316598318 194.9828325353 2318.2534383202
14874	54065223 691 34362790 34600654 2382 2400 19 626.6 812.02139337215 13702.677072623 9963184.332614
14873	54065914 533 34362790 34600654 2382 2400 19 226.6 235.58175451118 4316.880788643 980893.65049872
14889	54066447 607 34389507 34600654 2384 2400 17 0.973 8.276493799779 54.041437657766 251.74193511206
14888	54067054 655 34389507 34600654 2384 2400 17 -4.2098462201561 2.1517584842583 3.0447952711535 51.424815581804
14885	54067709 665 34374856 34600654 2383 2400 18 2.9139835353638 13.864352390768 194.47232584733 2346.9260058804
14876	54068374 691 34362790 34600654 2382 2400 19 637.44739991176 826.6 13788.880802187 10089281.956799
14875	54069065 515 34362790 34600654 2382 2400 19 23.4 28.30813084042 449.76422194645 10669.480918095
14973	54069580 37 34600654 34600654 2400 2400 1 3.2643557638801 3.2643557638801 3.2643557638801 10.656018553177
14972	54069617 37 34600654 34600654 2400 2400 1 1.9283173366052 1.9283173366052 1.9283173366052 3.7184077506523
14966	54069654 74 34586258 34600654 2399 2400 2 2.2582823022344 4.1865996388397 6.4448819410741 22.627455492518
14958	54069728 101 34575015 34600654 2398 2400 3 237.3 241.84151751697 717.72059954043 171718.58797407
14957	54069829 81 34575015 34600654 2398 2400 3 223.4 223.4 670.2 149722.68
14904	54069910 515 34428272 34600654 2387 2400 14 1.656353998893 7.6730105668104 50.718457762657 241.91491655189
14903	54070425 539 34428272 34600654 2387 2400 14 -0.10834508168977 2.1528272325965 10.826495209036 20.616259583622
14898	54070964 555 34416567 34600654 2386 2400 15 2.9746244018713 13.884255199293 172.52374853053 2173.9716358363
14891	54071519 588 34401422 34600654 2385 2400 16 445.40014932692 612.45336945608 8678.4710736821 4756010.510238
14890	54072107 432 34401422 34600654 2385 2400 16 226.6 226.6 3625.6 821560.96
14906	54072539 488 34428272 34600654 2387 2400 14 0.973 8.9071490701797 47.034824558279 243.01487375437
14905	54073027 537 34428272 34600654 2387 2400 14 -2.0717401144064 2.0680189994141 3.9083222571102 30.721474264674
14899	54073564 553 34416567 34600654 2386 2400 15 4.0628135204033 13.875307631483 165.9979527101 1987.8676336756
14893	54074117 432 34401422 34600654 2385 2400 16 826.6 826.6 13225.6 10932280.96
14892	54074549 590 34401422 34600654 2385 2400 16 438.34808790659 601.79758231578 8189.5303012584 4240462.1993664
14908	54075139 517 34428272 34600654 2387 2400 14 1.7851260660358 7.9186108463331 50.698511517757 250.51920533004
14907	54075656 539 34428272 34600654 2387 2400 14 -0.070106559712439 2.0816422882187 11.260342967943 21.373667860044
14900	54076195 555 34416567 34600654 2386 2400 15 2.5097669681983 13.873676410753 167.62569916555 2093.8389864572
14895	54076750 591 34401422 34600654 2385 2400 16 237.32586937191 399.04689766053 4855.0066900946 1519285.7145734
14894	54077341 416 34401422 34600654 2385 2400 16 23.4 23.4 374.4 8760.96
14911	54077757 460 34443758 34600654 2388 2400 13 0.973 8.062461477244 46.7365312184 233.89292122685
14910	54078217 499 34443758 34600654 2388 2400 13 -2.5787130564086 2.1278544289013 8.0742118498404 28.056833952068
14909	54078716 518 34428272 34600654 2387 2400 14 2.7355972877625 13.869007271107 154.11812780728 1881.2923086725
14897	54079234 405 34416567 34600654 2386 2400 15 423.4 423.4 6351 2689013.4
14896	54079639 553 34416567 34600654 2386 2400 15 462.77056577977 612.55306734467 8252.5922168029 4578135.0239575
14914	54080192 444 34455285 34600654 2389 2400 12 1.8126157352548 8.3798999388918 46.298328259845 236.63300691545
14913	54080636 460 34455285 34600654 2389 2400 12 -0.061851729797199 2.0965384959872 10.383437412371 20.027991920214
14912	54081096 480 34443758 34600654 2388 2400 13 3.3821815252824 13.859899098349 146.96917687243 1824.4964556379
14902	54081576 514 34428272 34600654 2387 2400 14 437.66937484685 579.29453685416 6950.7749308115 3481884.7714874
14901	54082090 378 34428272 34600654 2387 2400 14 223.4 223.4 3127.6 698705.84
14943	54082468 258 34522634 34600654 2394 2400 7 2.1237200362676 8.2044675184927 36.486849287204 217.90921616595
14942	54082726 260 34522634 34600654 2394 2400 7 0.029868205660023 2.1440163715882 10.940508746633 20.019243500339
14938	54082986 296 34507700 34600654 2393 2400 8 2.9138518462046 13.854360592838 72.463298397544 777.40566760855
14923	54083282 331 34496041 34600654 2392 2400 9 637.44918250118 704.1029015897 5962.5861784651 3954748.8367136
14922	54083613 243 34496041 34600654 2392 2400 9 223.4 223.4 2010.6 449168.04
14935	54083856 296 34507700 34600654 2393 2400 8 1.6736410851307 8.4014488850191 37.827933954712 218.68200805721
14934	54084152 301 34507700 34600654 2393 2400 8 -0.10317589488579 2.0832925459673 9.9411306503327 18.863542959901
14928	54084453 333 34496041 34600654 2392 2400 9 3.8364302180539 13.880736763272 93.593153445385 1090.3514652348
14918	54084786 370 34481059 34600654 2391 2400 10 523.90318877515 612.01670459219 5768.1612398407 3335874.2519405
14917	54085156 270 34481059 34600654 2391 2400 10 626.6 626.6 6266 3926275.6
14927	54085426 331 34496041 34600654 2392 2400 9 1.7480582982317 8.4094008568962 40.690663928873 229.26759572804
14926	54085757 340 34496041 34600654 2392 2400 9 -0.080914432667196 2.1512344371923 10.831147224051 21.329850734687
14921	54086097 368 34481059 34600654 2391 2400 10 2.9525637152437 13.864625371962 103.69067189332 1227.6840201555
14916	54086465 406 34469862 34600654 2390 2400 11 237.4515216997 335.60154971706 3035.8490730335 849826.35209793
14915	54086871 297 34469862 34600654 2390 2400 11 423.4 423.4 4657.4 1971943.16
14937	54087168 295 34507700 34600654 2393 2400 8 2.1568608443395 8.183648485443 38.550547301287 217.9970699516
14936	54087463 297 34507700 34600654 2393 2400 8 0.04012384179514 2.0368468817067 10.72653328967 19.582952953868
14929	54087760 332 34496041 34600654 2392 2400 9 3.1609039263268 13.887437215997 88.763888886878 1011.7901485993
14920	54088092 270 34481059 34600654 2391 2400 10 826.6 826.6 8266 6832675.6
14919	54088362 369 34481059 34600654 2391 2400 10 237.65802796052 321.05684869199 2699.3054843991 736421.70727219
14945	54088731 259 34522634 34600654 2394 2400 7 2.0580303272695 8.2182014370122 36.563186610297 217.84161458578
14944	54088990 262 34522634 34600654 2394 2400 7 0.0096885367669177 2.0399895781814 10.547883775609 20.013518280478
14939	54089252 296 34507700 34600654 2393 2400 8 3.3227358425064 13.870619618115 77.295521218149 863.10647484301
14925	54089548 243 34496041 34600654 2392 2400 9 423.4 423.4 3810.6 1613408.04
14924	54089791 333 34496041 34600654 2392 2400 9 739.90797837871 812.01241553625 7056.2095182078 5537503.7777256
14949	54090124 220 34534394 34600654 2395 2400 6 2.996596178627 7.4460685998183 33.49780369046 201.43608265343
14948	54090344 223 34534394 34600654 2395 2400 6 0.29537645403574 2.1135735522304 9.6846478465204 17.876851093686
14946	54090567 257 34522634 34600654 2394 2400 7 4.0906167935878 13.775264640108 67.384334057967 730.06293800953
14931	54090824 296 34507700 34600654 2393 2400 8 149.39350682774 211.63064764633 1494.6925809249 282777.92856331
14930	54091120 216 34507700 34600654 2393 2400 8 226.6 226.6 1812.8 410780.48
14951	54091336 221 34534394 34600654 2395 2400 6 3.3351202534031 7.5875181813804 34.692507714717 214.43917277381
14950	54091557 221 34534394 34600654 2395 2400 6 1.5473451087562 2.0476390265091 11.336443769253 21.591207595491
14947	54091778 258 34522634 34600654 2394 2400 7 2.445223634964 13.781667404217 57.765438881677 579.60550475298
14933	54092036 208 34507700 34600654 2393 2400 8 26.6 26.6 212.8 5660.48
14932	54092244 296 34507700 34600654 2393 2400 8 237.32471274441 289.08864989334 2051.1497528897 528362.56775184
14954	54092540 184 34549173 34600654 2396 2400 5 3.5057553960689 7.2575323545124 28.898549989557 176.48598101316
14953	54092724 185 34549173 34600654 2396 2400 5 1.7470710807503 2.1630477779382 9.847892826125 19.497592399242
14952	54092909 219 34534394 34600654 2395 2400 6 2.8489874940689 12.696880320194 47.092511265216 439.53794094864
14941	54093128 259 34522634 34600654 2394 2400 7 437.44658504967 479.16640742469 3173.0433413401 1439756.6001791
14940	54093387 189 34522634 34600654 2394 2400 7 623.4 623.4 4363.8 2720392.92
14965	54093576 74 34586258 34600654 2399 2400 2 4.0274772472771 4.7056602380403 8.7331374853174 38.363811253208
14964	54093650 74 34586258 34600654 2399 2400 2 1.8310148316249 2.0130829346972 3.8440977663221 7.4051182155994
14961	54093724 111 34575015 34600654 2398 2400 3 3.4286663288593 7.2727640951814 16.143179687597 94.261485426231
14956	54093835 104 34560935 34600654 2397 2400 4 23.4 23.4 93.6 2190.24
14955	54093939 148 34560935 34600654 2397 2400 4 198.80604791555 212.32861001703 826.34366491572 170816.80523667
14969	54094087 26 34600654 34600654 2400 2400 1 23.4 23.4 23.4 547.56
14968	54094113 36 34600654 34600654 2400 2400 1 211.6554470148 211.6554470148 211.6554470148 44798.028251034
14975	54094149 36 34600654 34600654 2400 2400 1 3.642892592492 3.642892592492 3.642892592492 13.270666440433
14974	54094185 36 34600654 34600654 2400 2400 1 1.956764191892 1.956764191892 1.956764191892 3.8289261026707
14967	54094221 74 34586258 34600654 2399 2400 2 2.8955647169334 4.8523289088254 7.7478936257587 31.929390869372
14960	54094295 111 34575015 34600654 2398 2400 3 606.67626094295 612.55261759492 1829.847556917 1116131.9652996
14959	54094406 81 34575015 34600654 2398 2400 3 426.6 426.6 1279.8 545962.68
14976	54094487 37 34600654 34600654 2400 2400 1 3.4684090398522 3.4684090398522 3.4684090398522 12.029861267728
14963	54094524 74 34586258 34600654 2399 2400 2 209.86087867495 212.33161073454 422.1924894095 89126.30131535
14962	54094598 52 34586258 34600654 2399 2400 2 26.6 26.6 53.2 1415.12
14971	54094650 37 34600654 34600654 2400 2400 1 212.00948583069 212.00948583069 212.00948583069 44948.022082195
14970	54094687 27 34600654 34600654 2400 2400 1 226.6 226.6 226.6 51347.56

