file 42315933 1609467706                                        
version 2
run Default-0-20201231-22:16:39-10504
attr configname Default
attr datetime 20201231-22:16:39
attr experiment Default
attr inifile omnetpp.ini
attr iterationvars ""
attr iterationvarsf ""
attr measurement ""
attr network Sim2Scenario
attr processid 10504
attr repetition 0
attr replication #0
attr resultdir results
attr runnumber 0
attr seedset 0
param *.playgroundSizeX 1000m
param *.playgroundSizeY 1000m
param *.playgroundSizeZ 50m
param *.annotations.draw true
param *.manager.updateInterval 1s
param *.manager.host "\"localhost\""
param *.manager.port 9999
param *.manager.autoShutdown true
param *.manager.launchConfig "xmldoc(\"sim2.launchd.xml\")"
param *.connectionManager.sendDirect true
param *.connectionManager.maxInterfDist 300m
param *.connectionManager.drawMaxIntfDist false
param *.**.nic.mac1609_4.useServiceChannel false
param *.**.nic.mac1609_4.txPower 20mW
param *.**.nic.mac1609_4.bitrate 6Mbps
param *.**.nic.phy80211p.minPowerLevel -110dBm
param *.**.nic.phy80211p.useNoiseFloor true
param *.**.nic.phy80211p.noiseFloor -98dBm
param *.**.nic.phy80211p.decider "xmldoc(\"config.xml\")"
param *.**.nic.phy80211p.analogueModels "xmldoc(\"config.xml\")"
param *.**.nic.phy80211p.usePropagationDelay true
param *.**.nic.phy80211p.antenna "xmldoc(\"antenna.xml\", \"/root/Antenna[@id='monopole']\")"
param *.node[*].nic.phy80211p.antennaOffsetY "0 m"
param *.node[*].nic.phy80211p.antennaOffsetZ "1.895 m"
param *.node[*].applType "\"UninfectedDemo11p\""
param *.node[*].appl.headerLength "80 bit"
param *.node[*].appl.sendBeacons false
param *.node[*].appl.dataOnSch false
param *.node[*].appl.beaconInterval 1s
param *.node[*].veinsmobility.x 0
param *.node[*].veinsmobility.y 0
param *.node[*].veinsmobility.z 0
param *.node[*].veinsmobility.setHostSpeed false
param *.node[*0].veinsmobility.accidentCount 1
param *.node[*0].veinsmobility.accidentStart 73s
param *.node[*0].veinsmobility.accidentDuration 50s

vector 0 Sim2Scenario.node[0].veinsmobility posx ETV
vector 1 Sim2Scenario.node[0].veinsmobility posy ETV
vector 2 Sim2Scenario.node[1].veinsmobility posx ETV
vector 3 Sim2Scenario.node[1].veinsmobility posy ETV
vector 4 Sim2Scenario.node[0].veinsmobility speed ETV
vector 5 Sim2Scenario.node[2].veinsmobility posx ETV
vector 6 Sim2Scenario.node[2].veinsmobility posy ETV
vector 7 Sim2Scenario.node[0].veinsmobility acceleration ETV
vector 8 Sim2Scenario.node[0].veinsmobility co2emission ETV
vector 9 Sim2Scenario.node[1].veinsmobility speed ETV
vector 10 Sim2Scenario.node[3].veinsmobility posx ETV
vector 11 Sim2Scenario.node[3].veinsmobility posy ETV
vector 12 Sim2Scenario.node[1].veinsmobility acceleration ETV
vector 13 Sim2Scenario.node[1].veinsmobility co2emission ETV
vector 14 Sim2Scenario.node[2].veinsmobility speed ETV
vector 15 Sim2Scenario.node[4].veinsmobility posx ETV
vector 16 Sim2Scenario.node[4].veinsmobility posy ETV
vector 17 Sim2Scenario.node[2].veinsmobility acceleration ETV
vector 18 Sim2Scenario.node[2].veinsmobility co2emission ETV
vector 19 Sim2Scenario.node[3].veinsmobility speed ETV
vector 20 Sim2Scenario.node[5].veinsmobility posx ETV
vector 21 Sim2Scenario.node[5].veinsmobility posy ETV
vector 22 Sim2Scenario.node[3].veinsmobility acceleration ETV
vector 23 Sim2Scenario.node[3].veinsmobility co2emission ETV
vector 24 Sim2Scenario.node[4].veinsmobility speed ETV
vector 25 Sim2Scenario.node[6].veinsmobility posx ETV
vector 26 Sim2Scenario.node[6].veinsmobility posy ETV
vector 27 Sim2Scenario.node[4].veinsmobility acceleration ETV
vector 28 Sim2Scenario.node[4].veinsmobility co2emission ETV
vector 29 Sim2Scenario.node[5].veinsmobility speed ETV
vector 30 Sim2Scenario.node[7].veinsmobility posx ETV
vector 31 Sim2Scenario.node[7].veinsmobility posy ETV
vector 32 Sim2Scenario.node[5].veinsmobility acceleration ETV
vector 33 Sim2Scenario.node[5].veinsmobility co2emission ETV
vector 34 Sim2Scenario.node[6].veinsmobility speed ETV
vector 35 Sim2Scenario.node[8].veinsmobility posx ETV
vector 36 Sim2Scenario.node[8].veinsmobility posy ETV
vector 37 Sim2Scenario.node[6].veinsmobility acceleration ETV
vector 38 Sim2Scenario.node[6].veinsmobility co2emission ETV
vector 39 Sim2Scenario.node[7].veinsmobility speed ETV
vector 40 Sim2Scenario.node[9].veinsmobility posx ETV
vector 41 Sim2Scenario.node[9].veinsmobility posy ETV
vector 42 Sim2Scenario.node[7].veinsmobility acceleration ETV
vector 43 Sim2Scenario.node[7].veinsmobility co2emission ETV
vector 44 Sim2Scenario.node[8].veinsmobility speed ETV
vector 45 Sim2Scenario.node[10].veinsmobility posx ETV
vector 46 Sim2Scenario.node[10].veinsmobility posy ETV
vector 47 Sim2Scenario.node[8].veinsmobility acceleration ETV
vector 48 Sim2Scenario.node[8].veinsmobility co2emission ETV
vector 49 Sim2Scenario.node[9].veinsmobility speed ETV
vector 50 Sim2Scenario.node[11].veinsmobility posx ETV
vector 51 Sim2Scenario.node[11].veinsmobility posy ETV
vector 52 Sim2Scenario.node[9].veinsmobility acceleration ETV
vector 53 Sim2Scenario.node[9].veinsmobility co2emission ETV
vector 54 Sim2Scenario.node[10].veinsmobility speed ETV
vector 55 Sim2Scenario.node[12].veinsmobility posx ETV
vector 56 Sim2Scenario.node[12].veinsmobility posy ETV
vector 57 Sim2Scenario.node[10].veinsmobility acceleration ETV
vector 58 Sim2Scenario.node[10].veinsmobility co2emission ETV
vector 59 Sim2Scenario.node[11].veinsmobility speed ETV
vector 60 Sim2Scenario.node[13].veinsmobility posx ETV
vector 61 Sim2Scenario.node[13].veinsmobility posy ETV
vector 62 Sim2Scenario.node[11].veinsmobility acceleration ETV
vector 63 Sim2Scenario.node[11].veinsmobility co2emission ETV
vector 64 Sim2Scenario.node[12].veinsmobility speed ETV
vector 65 Sim2Scenario.node[14].veinsmobility posx ETV
vector 66 Sim2Scenario.node[14].veinsmobility posy ETV
vector 67 Sim2Scenario.node[12].veinsmobility acceleration ETV
vector 68 Sim2Scenario.node[12].veinsmobility co2emission ETV
vector 69 Sim2Scenario.node[13].veinsmobility speed ETV
vector 70 Sim2Scenario.node[15].veinsmobility posx ETV
vector 71 Sim2Scenario.node[15].veinsmobility posy ETV
vector 72 Sim2Scenario.node[13].veinsmobility acceleration ETV
vector 73 Sim2Scenario.node[13].veinsmobility co2emission ETV
vector 74 Sim2Scenario.node[14].veinsmobility speed ETV
vector 75 Sim2Scenario.node[16].veinsmobility posx ETV
vector 76 Sim2Scenario.node[16].veinsmobility posy ETV
vector 77 Sim2Scenario.node[14].veinsmobility acceleration ETV
vector 78 Sim2Scenario.node[14].veinsmobility co2emission ETV
vector 79 Sim2Scenario.node[15].veinsmobility speed ETV
vector 80 Sim2Scenario.node[17].veinsmobility posx ETV
vector 81 Sim2Scenario.node[17].veinsmobility posy ETV
vector 82 Sim2Scenario.node[15].veinsmobility acceleration ETV
vector 83 Sim2Scenario.node[15].veinsmobility co2emission ETV
vector 84 Sim2Scenario.node[16].veinsmobility speed ETV
vector 85 Sim2Scenario.node[18].veinsmobility posx ETV
vector 86 Sim2Scenario.node[18].veinsmobility posy ETV
vector 87 Sim2Scenario.node[16].veinsmobility acceleration ETV
vector 88 Sim2Scenario.node[16].veinsmobility co2emission ETV
vector 89 Sim2Scenario.node[17].veinsmobility speed ETV
vector 90 Sim2Scenario.node[19].veinsmobility posx ETV
vector 91 Sim2Scenario.node[19].veinsmobility posy ETV
vector 92 Sim2Scenario.node[17].veinsmobility acceleration ETV
vector 93 Sim2Scenario.node[17].veinsmobility co2emission ETV
vector 94 Sim2Scenario.node[18].veinsmobility speed ETV
vector 95 Sim2Scenario.node[20].veinsmobility posx ETV
vector 96 Sim2Scenario.node[20].veinsmobility posy ETV
vector 97 Sim2Scenario.node[18].veinsmobility acceleration ETV
vector 98 Sim2Scenario.node[18].veinsmobility co2emission ETV
vector 99 Sim2Scenario.node[19].veinsmobility speed ETV
vector 100 Sim2Scenario.node[21].veinsmobility posx ETV
vector 101 Sim2Scenario.node[21].veinsmobility posy ETV
vector 102 Sim2Scenario.node[19].veinsmobility acceleration ETV
vector 103 Sim2Scenario.node[19].veinsmobility co2emission ETV
vector 104 Sim2Scenario.node[20].veinsmobility speed ETV
vector 105 Sim2Scenario.node[22].veinsmobility posx ETV
vector 106 Sim2Scenario.node[22].veinsmobility posy ETV
vector 107 Sim2Scenario.node[20].veinsmobility acceleration ETV
vector 108 Sim2Scenario.node[20].veinsmobility co2emission ETV
vector 109 Sim2Scenario.node[21].veinsmobility speed ETV
vector 110 Sim2Scenario.node[23].veinsmobility posx ETV
vector 111 Sim2Scenario.node[23].veinsmobility posy ETV
vector 112 Sim2Scenario.node[21].veinsmobility acceleration ETV
vector 113 Sim2Scenario.node[21].veinsmobility co2emission ETV
vector 114 Sim2Scenario.node[22].veinsmobility speed ETV
vector 115 Sim2Scenario.node[24].veinsmobility posx ETV
vector 116 Sim2Scenario.node[24].veinsmobility posy ETV
vector 117 Sim2Scenario.node[22].veinsmobility acceleration ETV
vector 118 Sim2Scenario.node[22].veinsmobility co2emission ETV
vector 119 Sim2Scenario.node[23].veinsmobility speed ETV
vector 120 Sim2Scenario.node[25].veinsmobility posx ETV
vector 121 Sim2Scenario.node[25].veinsmobility posy ETV
vector 122 Sim2Scenario.node[23].veinsmobility acceleration ETV
vector 123 Sim2Scenario.node[23].veinsmobility co2emission ETV
vector 124 Sim2Scenario.node[24].veinsmobility speed ETV
vector 125 Sim2Scenario.node[26].veinsmobility posx ETV
vector 126 Sim2Scenario.node[26].veinsmobility posy ETV
vector 127 Sim2Scenario.node[24].veinsmobility acceleration ETV
vector 128 Sim2Scenario.node[24].veinsmobility co2emission ETV
vector 129 Sim2Scenario.node[25].veinsmobility speed ETV
vector 130 Sim2Scenario.node[27].veinsmobility posx ETV
vector 131 Sim2Scenario.node[27].veinsmobility posy ETV
vector 132 Sim2Scenario.node[25].veinsmobility acceleration ETV
vector 133 Sim2Scenario.node[25].veinsmobility co2emission ETV
vector 134 Sim2Scenario.node[26].veinsmobility speed ETV
vector 135 Sim2Scenario.node[28].veinsmobility posx ETV
vector 136 Sim2Scenario.node[28].veinsmobility posy ETV
vector 137 Sim2Scenario.node[26].veinsmobility acceleration ETV
vector 138 Sim2Scenario.node[26].veinsmobility co2emission ETV
vector 139 Sim2Scenario.node[27].veinsmobility speed ETV
vector 140 Sim2Scenario.node[29].veinsmobility posx ETV
vector 141 Sim2Scenario.node[29].veinsmobility posy ETV
vector 142 Sim2Scenario.node[27].veinsmobility acceleration ETV
vector 143 Sim2Scenario.node[27].veinsmobility co2emission ETV
vector 144 Sim2Scenario.node[28].veinsmobility speed ETV
vector 145 Sim2Scenario.node[30].veinsmobility posx ETV
vector 146 Sim2Scenario.node[30].veinsmobility posy ETV
vector 147 Sim2Scenario.node[28].veinsmobility acceleration ETV
vector 148 Sim2Scenario.node[28].veinsmobility co2emission ETV
vector 149 Sim2Scenario.node[29].veinsmobility speed ETV
vector 150 Sim2Scenario.node[31].veinsmobility posx ETV
vector 151 Sim2Scenario.node[31].veinsmobility posy ETV
vector 152 Sim2Scenario.node[29].veinsmobility acceleration ETV
vector 153 Sim2Scenario.node[29].veinsmobility co2emission ETV
vector 154 Sim2Scenario.node[30].veinsmobility speed ETV
vector 155 Sim2Scenario.node[32].veinsmobility posx ETV
vector 156 Sim2Scenario.node[32].veinsmobility posy ETV
vector 157 Sim2Scenario.node[30].veinsmobility acceleration ETV
vector 158 Sim2Scenario.node[30].veinsmobility co2emission ETV
vector 159 Sim2Scenario.node[31].veinsmobility speed ETV
vector 160 Sim2Scenario.node[33].veinsmobility posx ETV
vector 161 Sim2Scenario.node[33].veinsmobility posy ETV
vector 162 Sim2Scenario.node[31].veinsmobility acceleration ETV
vector 163 Sim2Scenario.node[31].veinsmobility co2emission ETV
vector 164 Sim2Scenario.node[32].veinsmobility speed ETV
vector 165 Sim2Scenario.node[34].veinsmobility posx ETV
vector 166 Sim2Scenario.node[34].veinsmobility posy ETV
vector 167 Sim2Scenario.node[32].veinsmobility acceleration ETV
vector 168 Sim2Scenario.node[32].veinsmobility co2emission ETV
vector 169 Sim2Scenario.node[33].veinsmobility speed ETV
vector 170 Sim2Scenario.node[35].veinsmobility posx ETV
vector 171 Sim2Scenario.node[35].veinsmobility posy ETV
vector 172 Sim2Scenario.node[33].veinsmobility acceleration ETV
vector 173 Sim2Scenario.node[33].veinsmobility co2emission ETV
vector 174 Sim2Scenario.node[34].veinsmobility speed ETV
vector 175 Sim2Scenario.node[36].veinsmobility posx ETV
vector 176 Sim2Scenario.node[36].veinsmobility posy ETV
vector 177 Sim2Scenario.node[34].veinsmobility acceleration ETV
vector 178 Sim2Scenario.node[34].veinsmobility co2emission ETV
vector 179 Sim2Scenario.node[35].veinsmobility speed ETV
vector 180 Sim2Scenario.node[37].veinsmobility posx ETV
vector 181 Sim2Scenario.node[37].veinsmobility posy ETV
vector 182 Sim2Scenario.node[35].veinsmobility acceleration ETV
vector 183 Sim2Scenario.node[35].veinsmobility co2emission ETV
vector 184 Sim2Scenario.node[36].veinsmobility speed ETV
vector 185 Sim2Scenario.node[38].veinsmobility posx ETV
vector 186 Sim2Scenario.node[38].veinsmobility posy ETV
vector 187 Sim2Scenario.node[36].veinsmobility acceleration ETV
vector 188 Sim2Scenario.node[36].veinsmobility co2emission ETV
vector 189 Sim2Scenario.node[37].veinsmobility speed ETV
123	13258 378 27 40 26 39 14 1.7046288362581 7.8248594772988 50.054110153398 244.29796694799
122	13636 397 27 40 26 39 14 -0.09373022872256 2.0943918044725 9.8061608840758 18.728260891895
119	14033 402 26 40 25 39 15 4.0277950379694 13.878134806112 178.11467811615 2267.4349855542
111	14435 272 25 40 24 39 16 823.4 823.4 13174.4 10847800.96
110	14707 432 25 40 24 39 16 438.71025789349 611.61766712898 8591.7896323766 4665052.4677468
vector 190 Sim2Scenario.node[39].veinsmobility posx ETV
vector 191 Sim2Scenario.node[39].veinsmobility posy ETV
vector 192 Sim2Scenario.node[37].veinsmobility acceleration ETV
vector 193 Sim2Scenario.node[37].veinsmobility co2emission ETV
vector 194 Sim2Scenario.node[38].veinsmobility speed ETV
vector 195 Sim2Scenario.node[40].veinsmobility posx ETV
vector 196 Sim2Scenario.node[40].veinsmobility posy ETV
vector 197 Sim2Scenario.node[38].veinsmobility acceleration ETV
vector 198 Sim2Scenario.node[38].veinsmobility co2emission ETV
vector 199 Sim2Scenario.node[39].veinsmobility speed ETV
vector 200 Sim2Scenario.node[39].veinsmobility acceleration ETV
vector 201 Sim2Scenario.node[39].veinsmobility co2emission ETV
vector 202 Sim2Scenario.node[40].veinsmobility speed ETV
vector 203 Sim2Scenario.node[41].veinsmobility posx ETV
vector 204 Sim2Scenario.node[41].veinsmobility posy ETV
vector 205 Sim2Scenario.node[42].veinsmobility posx ETV
vector 206 Sim2Scenario.node[42].veinsmobility posy ETV
vector 207 Sim2Scenario.node[40].veinsmobility acceleration ETV
vector 208 Sim2Scenario.node[40].veinsmobility co2emission ETV
vector 209 Sim2Scenario.node[43].veinsmobility posx ETV
vector 210 Sim2Scenario.node[43].veinsmobility posy ETV
vector 211 Sim2Scenario.node[41].veinsmobility speed ETV
vector 212 Sim2Scenario.node[42].veinsmobility speed ETV
vector 213 Sim2Scenario.node[44].veinsmobility posx ETV
vector 214 Sim2Scenario.node[44].veinsmobility posy ETV
vector 215 Sim2Scenario.node[41].veinsmobility acceleration ETV
vector 216 Sim2Scenario.node[41].veinsmobility co2emission ETV
vector 217 Sim2Scenario.node[42].veinsmobility acceleration ETV
vector 218 Sim2Scenario.node[42].veinsmobility co2emission ETV
vector 219 Sim2Scenario.node[43].veinsmobility speed ETV
vector 220 Sim2Scenario.node[45].veinsmobility posx ETV
vector 221 Sim2Scenario.node[45].veinsmobility posy ETV
vector 222 Sim2Scenario.node[43].veinsmobility acceleration ETV
vector 223 Sim2Scenario.node[43].veinsmobility co2emission ETV
vector 224 Sim2Scenario.node[44].veinsmobility speed ETV
vector 225 Sim2Scenario.node[46].veinsmobility posx ETV
vector 226 Sim2Scenario.node[46].veinsmobility posy ETV
vector 227 Sim2Scenario.node[44].veinsmobility acceleration ETV
vector 228 Sim2Scenario.node[44].veinsmobility co2emission ETV
vector 229 Sim2Scenario.node[45].veinsmobility speed ETV
vector 230 Sim2Scenario.node[47].veinsmobility posx ETV
vector 231 Sim2Scenario.node[47].veinsmobility posy ETV
vector 232 Sim2Scenario.node[45].veinsmobility acceleration ETV
vector 233 Sim2Scenario.node[45].veinsmobility co2emission ETV
vector 234 Sim2Scenario.node[46].veinsmobility speed ETV
vector 235 Sim2Scenario.node[48].veinsmobility posx ETV
vector 236 Sim2Scenario.node[48].veinsmobility posy ETV
vector 237 Sim2Scenario.node[46].veinsmobility acceleration ETV
vector 238 Sim2Scenario.node[46].veinsmobility co2emission ETV
vector 239 Sim2Scenario.node[47].veinsmobility speed ETV
vector 240 Sim2Scenario.node[49].veinsmobility posx ETV
vector 241 Sim2Scenario.node[49].veinsmobility posy ETV
vector 242 Sim2Scenario.node[47].veinsmobility acceleration ETV
vector 243 Sim2Scenario.node[47].veinsmobility co2emission ETV
vector 244 Sim2Scenario.node[48].veinsmobility speed ETV
vector 245 Sim2Scenario.node[48].veinsmobility acceleration ETV
vector 246 Sim2Scenario.node[48].veinsmobility co2emission ETV
vector 247 Sim2Scenario.node[49].veinsmobility speed ETV
23	18637 1145 7 52 6 51 46 0.973 8.0209828473551 131.15079257426 543.69823416299
22	19782 1267 7 52 6 51 46 -3.3188026039673 2.2626646912354 9.7017864311674 63.640971278701
19	21049 1206 6 52 5 51 47 4.1837425248161 13.888416356484 576.10937176731 7460.6792997137
11	22255 1088 5 52 4 51 48 223.4 611.63399887184 17318.047145702 7178742.3387621
10	23343 915 5 52 4 51 48 40.963665082662 226.6 9522.2836365085 2022934.0703993
vector 248 Sim2Scenario.node[50].veinsmobility posx ETV
vector 249 Sim2Scenario.node[50].veinsmobility posy ETV
vector 250 Sim2Scenario.node[51].veinsmobility posx ETV
vector 251 Sim2Scenario.node[51].veinsmobility posy ETV
vector 252 Sim2Scenario.node[49].veinsmobility acceleration ETV
vector 253 Sim2Scenario.node[49].veinsmobility co2emission ETV
vector 254 Sim2Scenario.node[52].veinsmobility posx ETV
vector 255 Sim2Scenario.node[52].veinsmobility posy ETV
vector 256 Sim2Scenario.node[50].veinsmobility speed ETV
vector 257 Sim2Scenario.node[51].veinsmobility speed ETV
vector 258 Sim2Scenario.node[50].veinsmobility acceleration ETV
vector 259 Sim2Scenario.node[50].veinsmobility co2emission ETV
vector 260 Sim2Scenario.node[51].veinsmobility acceleration ETV
vector 261 Sim2Scenario.node[51].veinsmobility co2emission ETV
vector 262 Sim2Scenario.node[52].veinsmobility speed ETV
vector 263 Sim2Scenario.node[53].veinsmobility posx ETV
vector 264 Sim2Scenario.node[53].veinsmobility posy ETV
vector 265 Sim2Scenario.node[52].veinsmobility acceleration ETV
vector 266 Sim2Scenario.node[52].veinsmobility co2emission ETV
vector 267 Sim2Scenario.node[54].veinsmobility posx ETV
vector 268 Sim2Scenario.node[54].veinsmobility posy ETV
vector 269 Sim2Scenario.node[53].veinsmobility speed ETV
vector 270 Sim2Scenario.node[55].veinsmobility posx ETV
vector 271 Sim2Scenario.node[55].veinsmobility posy ETV
vector 272 Sim2Scenario.node[53].veinsmobility acceleration ETV
vector 273 Sim2Scenario.node[53].veinsmobility co2emission ETV
vector 274 Sim2Scenario.node[54].veinsmobility speed ETV
vector 275 Sim2Scenario.node[56].veinsmobility posx ETV
vector 276 Sim2Scenario.node[56].veinsmobility posy ETV
vector 277 Sim2Scenario.node[54].veinsmobility acceleration ETV
vector 278 Sim2Scenario.node[54].veinsmobility co2emission ETV
vector 279 Sim2Scenario.node[55].veinsmobility speed ETV
vector 280 Sim2Scenario.node[57].veinsmobility posx ETV
vector 281 Sim2Scenario.node[57].veinsmobility posy ETV
vector 282 Sim2Scenario.node[55].veinsmobility acceleration ETV
vector 283 Sim2Scenario.node[55].veinsmobility co2emission ETV
vector 284 Sim2Scenario.node[56].veinsmobility speed ETV
vector 285 Sim2Scenario.node[58].veinsmobility posx ETV
vector 286 Sim2Scenario.node[58].veinsmobility posy ETV
vector 287 Sim2Scenario.node[59].veinsmobility posx ETV
vector 288 Sim2Scenario.node[59].veinsmobility posy ETV
vector 289 Sim2Scenario.node[56].veinsmobility acceleration ETV
vector 290 Sim2Scenario.node[56].veinsmobility co2emission ETV
vector 291 Sim2Scenario.node[57].veinsmobility speed ETV
vector 292 Sim2Scenario.node[60].veinsmobility posx ETV
vector 293 Sim2Scenario.node[60].veinsmobility posy ETV
vector 294 Sim2Scenario.node[57].veinsmobility acceleration ETV
vector 295 Sim2Scenario.node[57].veinsmobility co2emission ETV
vector 296 Sim2Scenario.node[58].veinsmobility speed ETV
vector 297 Sim2Scenario.node[59].veinsmobility speed ETV
53	27253 1227 13 62 12 61 50 0.973 8.3916367649199 156.80464516604 731.1820925608
52	28480 1370 13 62 12 61 50 -3.355442694288 2.1179010292981 9.8259926062364 109.83213574634
49	29850 1321 12 62 11 61 51 3.5621496864848 13.887274319187 575.93308594475 7083.3423497391
41	31171 1189 11 62 10 61 52 438.35435812088 815.01378516943 32135.018901886 20292568.155547
40	32360 1028 11 62 10 61 52 423.4 623.4 26998.507549721 14431455.054212
vector 298 Sim2Scenario.node[61].veinsmobility posx ETV
vector 299 Sim2Scenario.node[61].veinsmobility posy ETV
vector 300 Sim2Scenario.node[58].veinsmobility acceleration ETV
vector 301 Sim2Scenario.node[58].veinsmobility co2emission ETV
vector 302 Sim2Scenario.node[59].veinsmobility acceleration ETV
vector 303 Sim2Scenario.node[59].veinsmobility co2emission ETV
vector 304 Sim2Scenario.node[60].veinsmobility speed ETV
73	33818 1179 17 63 16 62 47 0.973 8.4289382751256 133.86330881384 548.07168403824
72	34997 1302 17 63 16 62 47 -4.4378103577699 2.0562678857078 10.054449167529 69.087808111377
69	36299 1241 16 63 15 62 48 3.8004325452788 13.889763465817 579.17813187746 7430.2116121919
61	37540 1092 15 63 14 62 49 26.6 411.64691181547 7869.157048183 2206013.0602144
60	38632 911 15 63 14 62 49 26.6 215.99665397546 2718.2047194401 292549.42638738
8	39543 1452 4 63 3 62 60 0.973 8.4055474696849 161.27984760855 612.22100786781
7	40995 1607 4 63 3 62 60 -4.4742306211542 2.1980462150532 10.058768241004 72.707762233352
4	42602 1499 3 63 2 62 61 3.722822103166 13.882528818171 768.33703732052 10125.270501021
1	44101 1024 2 63 1 62 62 26.6 205.8570316518 2925.8687523518 267642.54071181
0	45125 1377 2 63 1 62 62 238.33130028169 823.4 36883.815286263 24562116.449966
vector 305 Sim2Scenario.node[60].veinsmobility acceleration ETV
vector 306 Sim2Scenario.node[60].veinsmobility co2emission ETV
vector 307 Sim2Scenario.node[61].veinsmobility speed ETV
vector 308 Sim2Scenario.node[62].veinsmobility posx ETV
vector 309 Sim2Scenario.node[62].veinsmobility posy ETV
vector 310 Sim2Scenario.node[61].veinsmobility acceleration ETV
vector 311 Sim2Scenario.node[61].veinsmobility co2emission ETV
88	46932 1150 20 65 19 64 46 0.973 8.2358515529932 131.90328068092 556.12009348721
87	48082 1280 20 65 19 64 46 -3.3360943807475 2.2415648450074 9.7492883084873 64.921569726473
84	49362 1216 19 65 18 64 47 4.1265234313304 13.882503290304 574.54128091163 7430.1325672934
76	50578 894 18 65 17 64 48 23.4 207.45692349137 2455.968231674 256622.41941575
75	51472 1103 18 65 17 64 48 223.4 611.61862955957 17344.568134053 7199869.1546769
vector 312 Sim2Scenario.node[63].veinsmobility posx ETV
vector 313 Sim2Scenario.node[63].veinsmobility posy ETV
vector 314 Sim2Scenario.node[64].veinsmobility posx ETV
vector 315 Sim2Scenario.node[64].veinsmobility posy ETV
vector 316 Sim2Scenario.node[62].veinsmobility speed ETV
vector 317 Sim2Scenario.node[65].veinsmobility posx ETV
vector 318 Sim2Scenario.node[65].veinsmobility posy ETV
vector 319 Sim2Scenario.node[62].veinsmobility acceleration ETV
vector 320 Sim2Scenario.node[62].veinsmobility co2emission ETV
vector 321 Sim2Scenario.node[63].veinsmobility speed ETV
vector 322 Sim2Scenario.node[64].veinsmobility speed ETV
vector 323 Sim2Scenario.node[66].veinsmobility posx ETV
vector 324 Sim2Scenario.node[66].veinsmobility posy ETV
vector 325 Sim2Scenario.node[63].veinsmobility acceleration ETV
vector 326 Sim2Scenario.node[63].veinsmobility co2emission ETV
vector 327 Sim2Scenario.node[64].veinsmobility acceleration ETV
vector 328 Sim2Scenario.node[64].veinsmobility co2emission ETV
vector 329 Sim2Scenario.node[65].veinsmobility speed ETV
vector 330 Sim2Scenario.node[67].veinsmobility posx ETV
vector 331 Sim2Scenario.node[67].veinsmobility posy ETV
vector 332 Sim2Scenario.node[65].veinsmobility acceleration ETV
vector 333 Sim2Scenario.node[65].veinsmobility co2emission ETV
vector 334 Sim2Scenario.node[66].veinsmobility speed ETV
vector 335 Sim2Scenario.node[68].veinsmobility posx ETV
vector 336 Sim2Scenario.node[68].veinsmobility posy ETV
vector 337 Sim2Scenario.node[66].veinsmobility acceleration ETV
vector 338 Sim2Scenario.node[66].veinsmobility co2emission ETV
vector 339 Sim2Scenario.node[67].veinsmobility speed ETV
vector 340 Sim2Scenario.node[69].veinsmobility posx ETV
vector 341 Sim2Scenario.node[69].veinsmobility posy ETV
vector 342 Sim2Scenario.node[67].veinsmobility acceleration ETV
vector 343 Sim2Scenario.node[67].veinsmobility co2emission ETV
vector 344 Sim2Scenario.node[68].veinsmobility speed ETV
18	54553 1605 6 71 5 70 66 0.973 8.2332987577029 205.89275172096 956.14491373576
17	56158 1803 6 71 5 70 66 -4.4851412721979 2.5619180149538 9.7829082326213 154.91951038343
14	57961 1727 5 71 4 70 67 3.3176953228269 13.884849982031 764.0281340528 9429.213401873
6	59688 1340 4 71 3 70 68 438.34775942317 623.4 39302.996479442 22986729.360091
5	61028 1371 4 71 3 70 68 26.6 423.4 15554.066922548 5327331.5843098
vector 345 Sim2Scenario.node[68].veinsmobility acceleration ETV
vector 346 Sim2Scenario.node[68].veinsmobility co2emission ETV
vector 347 Sim2Scenario.node[69].veinsmobility speed ETV
vector 348 Sim2Scenario.node[70].veinsmobility posx ETV
vector 349 Sim2Scenario.node[70].veinsmobility posy ETV
vector 350 Sim2Scenario.node[71].veinsmobility posx ETV
vector 351 Sim2Scenario.node[71].veinsmobility posy ETV
vector 352 Sim2Scenario.node[69].veinsmobility acceleration ETV
vector 353 Sim2Scenario.node[69].veinsmobility co2emission ETV
33	62943 1588 9 73 8 72 65 0.973 8.9859220848101 186.01210493343 797.24503678042
32	64531 1799 9 73 8 72 65 -3.4370351042505 2.3457853516634 9.8871315484824 111.81020004765
29	66330 1703 8 73 7 72 66 3.5229142080061 13.885804472454 763.92442138946 9627.7929915245
21	68033 1591 7 73 6 72 67 31.356110592024 426.6 16165.182096548 5295256.0928978
20	69624 1243 7 73 6 72 67 623.4 806.71655435557 43152.658764389 27930964.184769
vector 354 Sim2Scenario.node[72].veinsmobility posx ETV
vector 355 Sim2Scenario.node[72].veinsmobility posy ETV
vector 356 Sim2Scenario.node[70].veinsmobility speed ETV
vector 357 Sim2Scenario.node[71].veinsmobility speed ETV
128	71097 1221 28 74 27 73 47 0.973 8.6453453187798 133.85719689626 566.38659192374
127	72318 1351 28 74 27 73 47 -3.135537052064 2.2232572488766 9.9320166478425 66.691163218169
124	73669 1282 27 74 26 73 48 3.5078264561924 13.887267420811 567.27332640231 7254.9442519772
116	74951 1319 26 74 25 73 49 430.63949014352 810.62771236104 28260.566756179 16883159.099312
115	76270 795 26 74 25 73 49 23.4 26.6 1205.878980287 29791.835252238
vector 358 Sim2Scenario.node[73].veinsmobility posx ETV
vector 359 Sim2Scenario.node[73].veinsmobility posy ETV
vector 360 Sim2Scenario.node[70].veinsmobility acceleration ETV
vector 361 Sim2Scenario.node[70].veinsmobility co2emission ETV
vector 362 Sim2Scenario.node[71].veinsmobility acceleration ETV
vector 363 Sim2Scenario.node[71].veinsmobility co2emission ETV
vector 364 Sim2Scenario.node[72].veinsmobility speed ETV
vector 365 Sim2Scenario.node[74].veinsmobility posx ETV
vector 366 Sim2Scenario.node[74].veinsmobility posy ETV
vector 367 Sim2Scenario.node[72].veinsmobility acceleration ETV
vector 368 Sim2Scenario.node[72].veinsmobility co2emission ETV
vector 369 Sim2Scenario.node[73].veinsmobility speed ETV
43	77796 1595 11 216 10 75 66 0.973 8.5290299308371 205.24158617711 973.06078378514
42	79391 1808 11 216 10 75 66 -4.4726458723443 2.2768419297854 10.074626026463 147.936138252
39	81199 1734 10 216 9 75 67 3.6270036264462 13.877270556565 761.65788063412 9395.8923034827
31	82933 1265 9 216 8 75 68 623.4 823.4 47610.717664928 33865664.516406
30	84198 1606 9 216 8 75 68 426.6 619.15516666416 34471.484660043 17808736.201058
68	85804 1544 16 216 15 75 61 0.973 8.4722664279242 163.91630462019 632.50159040049
67	87348 1696 16 216 15 75 61 -3.1607996680653 2.5301911424333 9.8898672627106 69.649459428297
64	89044 1609 15 216 14 75 62 3.3973366077989 13.888971277256 782.50877971338 10318.099566134
56	90653 1495 14 216 13 75 63 38.36469348464 626.6 25217.666604239 12771887.534299
55	92148 1179 14 216 13 75 63 623.4 816.16666898268 40730.121184017 26490773.525732
vector 370 Sim2Scenario.node[75].veinsmobility posx ETV
vector 371 Sim2Scenario.node[75].veinsmobility posy ETV
vector 372 Sim2Scenario.node[73].veinsmobility acceleration ETV
vector 373 Sim2Scenario.node[73].veinsmobility co2emission ETV
vector 374 Sim2Scenario.node[74].veinsmobility speed ETV
63	93628 1570 15 3691 14 76 63 0.973 8.6364354675409 180.96430619925 779.06851554482
62	95198 1744 15 3691 14 76 63 -4.442733806076 2.1352196676121 9.8746057435903 103.08677120214
59	96942 1649 14 3691 13 76 64 3.5885107131671 13.888562554053 760.4476639401 9689.0634772165
51	98591 1351 13 3691 12 76 65 441.43673894105 826.6 48093.386668127 36549025.464785
50	99942 1402 13 3691 12 76 65 226.6 419.33045742646 18354.645147213 5489593.2698183
vector 375 Sim2Scenario.node[76].veinsmobility posx ETV
vector 376 Sim2Scenario.node[76].veinsmobility posy ETV
vector 377 Sim2Scenario.node[74].veinsmobility acceleration ETV
vector 378 Sim2Scenario.node[74].veinsmobility co2emission ETV
vector 379 Sim2Scenario.node[75].veinsmobility speed ETV
48	101645 1623 12 3692 11 77 67 0.973 8.2641879631422 188.47713800978 812.32148524915
47	103268 1856 12 3692 11 77 67 -3.2153195784046 2.3903803224303 1.3512910917188 140.43531878068
44	105124 1767 11 3692 10 77 68 3.5946160302825 13.889501384608 771.404886702 9545.4174951623
36	106891 1430 10 3692 9 77 69 23.4 423.4 15475.131519639 5436777.3940709
35	108321 1485 10 3692 9 77 69 436.34111722979 811.64220992029 43202.314472959 27555894.336238
vector 380 Sim2Scenario.node[77].veinsmobility posx ETV
vector 381 Sim2Scenario.node[77].veinsmobility posy ETV
vector 382 Sim2Scenario.node[75].veinsmobility acceleration ETV
vector 383 Sim2Scenario.node[75].veinsmobility co2emission ETV
vector 384 Sim2Scenario.node[76].veinsmobility speed ETV
vector 385 Sim2Scenario.node[78].veinsmobility posx ETV
vector 386 Sim2Scenario.node[78].veinsmobility posy ETV
vector 387 Sim2Scenario.node[76].veinsmobility acceleration ETV
vector 388 Sim2Scenario.node[76].veinsmobility co2emission ETV
vector 389 Sim2Scenario.node[77].veinsmobility speed ETV
vector 390 Sim2Scenario.node[79].veinsmobility posx ETV
vector 391 Sim2Scenario.node[79].veinsmobility posy ETV
vector 392 Sim2Scenario.node[77].veinsmobility acceleration ETV
vector 393 Sim2Scenario.node[77].veinsmobility co2emission ETV
vector 394 Sim2Scenario.node[78].veinsmobility speed ETV
58	110709 1646 14 8373 13 80 68 0.973 8.7853057562305 211.26325657658 1001.9132274115
57	112355 1876 14 8373 13 80 68 -3.1574405016875 2.4827399817482 9.8272582514423 155.30781876853
54	114231 1798 13 8373 12 80 69 3.4423509383507 13.882109054266 770.201850623 9404.6187357801
46	116029 1290 12 8373 11 80 70 440.7552948923 623.4 42319.468848518 25724380.02764
45	117319 1689 12 8373 11 80 70 226.6 811.61667995088 32201.448411643 17579982.673617
vector 395 Sim2Scenario.node[80].veinsmobility posx ETV
vector 396 Sim2Scenario.node[80].veinsmobility posy ETV
vector 397 Sim2Scenario.node[78].veinsmobility acceleration ETV
vector 398 Sim2Scenario.node[78].veinsmobility co2emission ETV
vector 399 Sim2Scenario.node[79].veinsmobility speed ETV
vector 400 Sim2Scenario.node[81].veinsmobility posx ETV
vector 401 Sim2Scenario.node[81].veinsmobility posy ETV
vector 402 Sim2Scenario.node[79].veinsmobility acceleration ETV
vector 403 Sim2Scenario.node[79].veinsmobility co2emission ETV
vector 404 Sim2Scenario.node[80].veinsmobility speed ETV
vector 405 Sim2Scenario.node[82].veinsmobility posx ETV
vector 406 Sim2Scenario.node[82].veinsmobility posy ETV
vector 407 Sim2Scenario.node[80].veinsmobility acceleration ETV
vector 408 Sim2Scenario.node[80].veinsmobility co2emission ETV
vector 409 Sim2Scenario.node[81].veinsmobility speed ETV
98	119911 1578 22 8565 21 83 63 0.973 8.4276133863084 181.20965226641 768.5626411931
97	121489 1764 22 8565 21 83 63 -4.4712321171188 2.1250076595368 9.7495169803806 107.49014180173
94	123253 1678 21 8565 20 83 64 3.6172514760634 13.88748094046 759.68363771926 9670.8058798311
86	124931 1545 20 8565 19 83 65 431.01047080496 823.4 42051.416688333 28604125.281549
85	126476 1245 20 8565 19 83 65 223.4 411.64642465614 16453.272331307 4365991.2959364
vector 410 Sim2Scenario.node[83].veinsmobility posx ETV
vector 411 Sim2Scenario.node[83].veinsmobility posy ETV
vector 412 Sim2Scenario.node[81].veinsmobility acceleration ETV
vector 413 Sim2Scenario.node[81].veinsmobility co2emission ETV
vector 414 Sim2Scenario.node[82].veinsmobility speed ETV
28	128022 1962 8 8725 7 84 78 0.973 8.269885686356 213.89597447249 861.665934541
27	129984 2203 8 8725 7 84 78 -4.0406378441723 2.2225296193827 9.8239989896766 110.84874226362
24	132187 2059 7 8725 6 84 79 3.0996251721153 13.885657052209 967.98290130711 12563.617620291
16	134246 1914 6 8725 5 84 80 226.6 811.65841929311 33606.762428336 17121446.503049
15	136160 1484 6 8725 5 84 80 426.6 623.4 39140.779535936 19720714.29316
346	137644 398 72 8725 71 84 14 1.8734453088601 8.7253972037592 49.885301938213 242.64312335327
345	138042 417 72 8725 71 84 14 -0.044049876017962 2.0653796189185 9.8423862998908 18.360109154762
344	138459 424 71 8725 70 84 15 3.9737090226986 13.860145198607 176.63376605357 2236.1588274064
336	138883 276 70 8725 69 84 16 26.6 26.6 425.6 11320.96
335	139159 451 70 8725 69 84 16 34.347380757295 205.99357700393 1728.727229099 237423.81789177
78	139610 1651 18 8725 17 84 68 0.973 9.347352072338 206.0584917455 940.03287915393
77	141261 1889 18 8725 17 84 68 -3.1591739660043 2.2995617746771 9.8727514081581 140.95302019735
74	143150 1807 17 8725 16 84 69 2.8013693035055 13.886808744448 762.18974138711 9288.6221616977
66	144957 1472 16 8725 15 84 70 244.43791472359 626.6 37900.671193125 21508864.857633
65	146429 1535 16 8725 15 84 70 31.651835111532 226.6 11993.567371265 2390382.9856985
vector 415 Sim2Scenario.node[84].veinsmobility posx ETV
vector 416 Sim2Scenario.node[84].veinsmobility posy ETV
vector 417 Sim2Scenario.node[82].veinsmobility acceleration ETV
vector 418 Sim2Scenario.node[82].veinsmobility co2emission ETV
vector 419 Sim2Scenario.node[83].veinsmobility speed ETV
vector 420 Sim2Scenario.node[83].veinsmobility acceleration ETV
vector 421 Sim2Scenario.node[83].veinsmobility co2emission ETV
vector 422 Sim2Scenario.node[84].veinsmobility speed ETV
vector 423 Sim2Scenario.node[85].veinsmobility posx ETV
vector 424 Sim2Scenario.node[85].veinsmobility posy ETV
vector 425 Sim2Scenario.node[84].veinsmobility acceleration ETV
vector 426 Sim2Scenario.node[84].veinsmobility co2emission ETV
vector 427 Sim2Scenario.node[86].veinsmobility posx ETV
vector 428 Sim2Scenario.node[86].veinsmobility posy ETV
vector 429 Sim2Scenario.node[85].veinsmobility speed ETV
113	148867 1698 25 8999 24 88 65 0.973 8.2909371665769 187.91624156529 788.1104531233
112	150565 1890 25 8999 24 88 65 -3.2084025583017 2.5059182305308 9.9094089512318 110.87574541306
109	152455 1805 24 8999 23 88 66 3.5423361058903 13.889317078406 776.2509507674 9806.5668362971
101	154260 1335 23 8999 22 88 67 26.6 226.6 7270.520160834 1332071.0749444
100	155595 1676 23 8999 22 88 67 238.35795385615 815.12303929507 32377.416992086 17183992.445159
vector 430 Sim2Scenario.node[87].veinsmobility posx ETV
vector 431 Sim2Scenario.node[87].veinsmobility posy ETV
vector 432 Sim2Scenario.node[85].veinsmobility acceleration ETV
vector 433 Sim2Scenario.node[85].veinsmobility co2emission ETV
vector 434 Sim2Scenario.node[86].veinsmobility speed ETV
vector 435 Sim2Scenario.node[88].veinsmobility posx ETV
vector 436 Sim2Scenario.node[88].veinsmobility posy ETV
vector 437 Sim2Scenario.node[86].veinsmobility acceleration ETV
vector 438 Sim2Scenario.node[86].veinsmobility co2emission ETV
vector 439 Sim2Scenario.node[87].veinsmobility speed ETV
vector 440 Sim2Scenario.node[89].veinsmobility posx ETV
vector 441 Sim2Scenario.node[89].veinsmobility posy ETV
vector 442 Sim2Scenario.node[87].veinsmobility acceleration ETV
vector 443 Sim2Scenario.node[87].veinsmobility co2emission ETV
vector 444 Sim2Scenario.node[88].veinsmobility speed ETV
vector 445 Sim2Scenario.node[90].veinsmobility posx ETV
vector 446 Sim2Scenario.node[90].veinsmobility posy ETV
vector 447 Sim2Scenario.node[91].veinsmobility posx ETV
vector 448 Sim2Scenario.node[91].veinsmobility posy ETV
vector 449 Sim2Scenario.node[88].veinsmobility acceleration ETV
vector 450 Sim2Scenario.node[88].veinsmobility co2emission ETV
vector 451 Sim2Scenario.node[89].veinsmobility speed ETV
388	158589 403 7118 9003 79 92 14 1.6461784894204 8.2342151365977 49.69486847407 250.70983988651
387	158992 427 7118 9003 79 92 14 -0.1113488125545 2.0425042623933 9.5757687037998 18.873385441822
384	159419 432 7117 9003 78 92 15 4.1850324552226 13.884513359133 178.52404907035 2274.6541928071
376	159851 304 3692 9003 77 92 16 826.6 826.6 13225.6 10932280.96
375	160155 462 3692 9003 77 92 16 34.371206456374 207.61082736701 1747.917384697 242512.84113314
vector 452 Sim2Scenario.node[92].veinsmobility posx ETV
vector 453 Sim2Scenario.node[92].veinsmobility posy ETV
vector 454 Sim2Scenario.node[89].veinsmobility acceleration ETV
vector 455 Sim2Scenario.node[89].veinsmobility co2emission ETV
vector 456 Sim2Scenario.node[90].veinsmobility speed ETV
vector 457 Sim2Scenario.node[91].veinsmobility speed ETV
vector 458 Sim2Scenario.node[93].veinsmobility posx ETV
vector 459 Sim2Scenario.node[93].veinsmobility posy ETV
vector 460 Sim2Scenario.node[90].veinsmobility acceleration ETV
vector 461 Sim2Scenario.node[90].veinsmobility co2emission ETV
vector 462 Sim2Scenario.node[91].veinsmobility acceleration ETV
vector 463 Sim2Scenario.node[91].veinsmobility co2emission ETV
vector 464 Sim2Scenario.node[92].veinsmobility speed ETV
218	161406 1306 46 9006 45 94 50 0.973 8.6151636055864 157.81584208697 751.19584078059
217	162712 1455 46 9006 45 94 50 -3.3211367488196 2.4992886592494 9.7372689410282 114.39070538408
212	164167 1412 45 9006 44 94 51 3.3764682534139 13.888081073791 576.42205370871 7098.3832673244
206	165579 1123 44 9006 43 94 52 226.6 426.6 16716.037260618 5787620.2170068
205	166702 1279 44 9006 43 94 52 438.35218967679 815.24664681061 32069.492568983 20210545.562538
vector 465 Sim2Scenario.node[94].veinsmobility posx ETV
vector 466 Sim2Scenario.node[94].veinsmobility posy ETV
vector 467 Sim2Scenario.node[92].veinsmobility acceleration ETV
vector 468 Sim2Scenario.node[92].veinsmobility co2emission ETV
vector 469 Sim2Scenario.node[93].veinsmobility speed ETV
138	168282 1699 30 9007 29 95 67 0.973 9.1104217018551 202.51886494148 935.99931153087
137	169981 1935 30 9007 29 95 67 -4.5 2.1951974842628 3.7910899384368 163.05089451452
134	171916 1874 29 9007 28 95 68 3.5373828112096 13.887915906974 762.89769604616 9257.0736487014
126	173790 1562 28 9007 27 95 69 226.6 423.4 22435.763021733 7764034.493732
125	175352 1581 28 9007 27 95 69 226.6 423.4 22394.740108875 7732845.9661787
vector 470 Sim2Scenario.node[93].veinsmobility acceleration ETV
vector 471 Sim2Scenario.node[93].veinsmobility co2emission ETV
vector 472 Sim2Scenario.node[94].veinsmobility speed ETV
vector 473 Sim2Scenario.node[95].veinsmobility posx ETV
vector 474 Sim2Scenario.node[95].veinsmobility posy ETV
vector 475 Sim2Scenario.node[94].veinsmobility acceleration ETV
vector 476 Sim2Scenario.node[94].veinsmobility co2emission ETV
183	177363 1483 39 9009 38 97 60 0.973 8.7359699486349 167.32105557693 755.4251338717
182	178846 1746 39 9009 38 97 60 -3.2610937482087 2.342380305503 -0.030127712997095 151.73095425371
179	180592 1703 38 9009 37 97 61 4.7341956568073e-014 13.889831382905 568.27204988504 6671.6238394826
171	182295 1110 37 9009 36 97 62 623.4 626.6 38731.867377 24196240.664938
170	183405 1706 37 9009 36 97 62 430.86631149981 811.66942286851 36721.537000123 22475338.94696
vector 477 Sim2Scenario.node[96].veinsmobility posx ETV
vector 478 Sim2Scenario.node[96].veinsmobility posy ETV
vector 479 Sim2Scenario.node[95].veinsmobility speed ETV
vector 480 Sim2Scenario.node[97].veinsmobility posx ETV
vector 481 Sim2Scenario.node[97].veinsmobility posy ETV
vector 482 Sim2Scenario.node[98].veinsmobility posx ETV
vector 483 Sim2Scenario.node[98].veinsmobility posy ETV
vector 484 Sim2Scenario.node[95].veinsmobility acceleration ETV
vector 485 Sim2Scenario.node[95].veinsmobility co2emission ETV
vector 486 Sim2Scenario.node[96].veinsmobility speed ETV
vector 487 Sim2Scenario.node[99].veinsmobility posx ETV
vector 488 Sim2Scenario.node[99].veinsmobility posy ETV
vector 489 Sim2Scenario.node[96].veinsmobility acceleration ETV
vector 490 Sim2Scenario.node[96].veinsmobility co2emission ETV
vector 491 Sim2Scenario.node[97].veinsmobility speed ETV
vector 492 Sim2Scenario.node[98].veinsmobility speed ETV
vector 493 Sim2Scenario.node[100].veinsmobility posx ETV
vector 494 Sim2Scenario.node[100].veinsmobility posy ETV
vector 495 Sim2Scenario.node[97].veinsmobility acceleration ETV
vector 496 Sim2Scenario.node[97].veinsmobility co2emission ETV
vector 497 Sim2Scenario.node[98].veinsmobility acceleration ETV
vector 498 Sim2Scenario.node[98].veinsmobility co2emission ETV
vector 499 Sim2Scenario.node[99].veinsmobility speed ETV
vector 500 Sim2Scenario.node[101].veinsmobility posx ETV
vector 501 Sim2Scenario.node[101].veinsmobility posy ETV
vector 502 Sim2Scenario.node[99].veinsmobility acceleration ETV
vector 503 Sim2Scenario.node[99].veinsmobility co2emission ETV
vector 504 Sim2Scenario.node[100].veinsmobility speed ETV
259	186793 1294 55 9014 54 102 49 0.973 8.5827690531574 156.51996002592 745.37898002998
258	188087 1456 55 9014 54 102 49 -4.4547244845487 2.3718831802928 11.011986539382 110.25970158922
256	189543 1406 54 9014 53 102 50 2.8763442045643 13.889917687066 575.71061024338 7165.7709893114
249	190949 1103 53 9014 52 102 51 237.45052724309 423.4 19709.352250365 7814605.6194614
248	192052 1260 53 9014 52 102 51 237.84635250337 623.4 25522.97723646 13595216.76259
vector 505 Sim2Scenario.node[102].veinsmobility posx ETV
vector 506 Sim2Scenario.node[102].veinsmobility posy ETV
vector 507 Sim2Scenario.node[100].veinsmobility acceleration ETV
vector 508 Sim2Scenario.node[100].veinsmobility co2emission ETV
vector 509 Sim2Scenario.node[101].veinsmobility speed ETV
vector 510 Sim2Scenario.node[103].veinsmobility posx ETV
vector 511 Sim2Scenario.node[103].veinsmobility posy ETV
vector 512 Sim2Scenario.node[101].veinsmobility acceleration ETV
vector 513 Sim2Scenario.node[101].veinsmobility co2emission ETV
vector 514 Sim2Scenario.node[102].veinsmobility speed ETV
83	193924 2161 19 9017 18 104 87 0.973 8.4954785182148 266.16647273425 1239.9178849403
82	196085 2441 19 9017 18 104 87 -4.5 2.5033490096172 9.6125529379404 217.92521882781
79	198526 2344 18 9017 17 104 88 0.53709502093064 13.8870143887 965.09030165411 11842.486102457
71	200870 1837 17 9017 16 104 89 423.4 623.4 48129.887657903 26691394.141687
70	202707 2077 17 9017 16 104 89 26.6 611.63982373774 26295.648146891 10930990.160862
vector 515 Sim2Scenario.node[104].veinsmobility posx ETV
vector 516 Sim2Scenario.node[104].veinsmobility posy ETV
vector 517 Sim2Scenario.node[102].veinsmobility acceleration ETV
vector 518 Sim2Scenario.node[102].veinsmobility co2emission ETV
vector 519 Sim2Scenario.node[103].veinsmobility speed ETV
vector 520 Sim2Scenario.node[105].veinsmobility posx ETV
vector 521 Sim2Scenario.node[105].veinsmobility posy ETV
vector 522 Sim2Scenario.node[103].veinsmobility acceleration ETV
vector 523 Sim2Scenario.node[103].veinsmobility co2emission ETV
vector 524 Sim2Scenario.node[104].veinsmobility speed ETV
vector 525 Sim2Scenario.node[106].veinsmobility posx ETV
vector 526 Sim2Scenario.node[106].veinsmobility posy ETV
vector 527 Sim2Scenario.node[104].veinsmobility acceleration ETV
vector 528 Sim2Scenario.node[104].veinsmobility co2emission ETV
vector 529 Sim2Scenario.node[105].veinsmobility speed ETV
vector 530 Sim2Scenario.node[107].veinsmobility posx ETV
vector 531 Sim2Scenario.node[107].veinsmobility posy ETV
vector 532 Sim2Scenario.node[105].veinsmobility acceleration ETV
vector 533 Sim2Scenario.node[105].veinsmobility co2emission ETV
vector 534 Sim2Scenario.node[106].veinsmobility speed ETV
vector 535 Sim2Scenario.node[106].veinsmobility acceleration ETV
vector 536 Sim2Scenario.node[106].veinsmobility co2emission ETV
vector 537 Sim2Scenario.node[107].veinsmobility speed ETV
vector 538 Sim2Scenario.node[108].veinsmobility posx ETV
vector 539 Sim2Scenario.node[108].veinsmobility posy ETV
vector 540 Sim2Scenario.node[109].veinsmobility posx ETV
vector 541 Sim2Scenario.node[109].veinsmobility posy ETV
vector 542 Sim2Scenario.node[107].veinsmobility acceleration ETV
vector 543 Sim2Scenario.node[107].veinsmobility co2emission ETV
153	206561 2128 33 9023 32 110 79 0.973 8.8201189077618 215.2855895608 844.44700643453
152	208689 2355 33 9023 32 110 79 -3.3080018564374 2.3696890860586 9.7511268416577 108.07823177393
149	211044 2234 32 9023 31 110 80 3.9033893973823 13.889780930837 974.53498953054 12568.578567224
141	213278 1808 31 9023 30 110 81 423.4 826.6 52972.361054668 37055421.976531
140	215086 1956 31 9023 30 110 81 223.4 608.64995633655 25530.718312171 9077172.3978754
vector 544 Sim2Scenario.node[110].veinsmobility posx ETV
vector 545 Sim2Scenario.node[110].veinsmobility posy ETV
vector 546 Sim2Scenario.node[108].veinsmobility speed ETV
vector 547 Sim2Scenario.node[109].veinsmobility speed ETV
vector 548 Sim2Scenario.node[108].veinsmobility acceleration ETV
vector 549 Sim2Scenario.node[108].veinsmobility co2emission ETV
vector 550 Sim2Scenario.node[109].veinsmobility acceleration ETV
vector 551 Sim2Scenario.node[109].veinsmobility co2emission ETV
vector 552 Sim2Scenario.node[110].veinsmobility speed ETV
118	217597 2021 26 9025 25 112 88 0.973 8.4478380784518 198.38723004135 770.46751817755
117	219618 2148 26 9025 25 112 88 -3.1173637429796 2.0289791903808 9.9454687752899 125.28260010622
114	221766 2087 25 9025 24 112 89 0 13.882030911413 571.31798368672 6786.2506131798
106	223853 1817 24 9025 23 112 90 435.63989797918 626.6 54891.075990406 33640202.584567
105	225670 2136 24 9025 23 112 90 431.57583351548 626.6 51801.851256814 30213526.251457
vector 553 Sim2Scenario.node[111].veinsmobility posx ETV
vector 554 Sim2Scenario.node[111].veinsmobility posy ETV
vector 555 Sim2Scenario.node[110].veinsmobility acceleration ETV
vector 556 Sim2Scenario.node[110].veinsmobility co2emission ETV
368	228053 1030 216 9026 75 113 39 0.973 8.012358712351 112.61491524973 491.34073432134
367	229083 1186 216 9026 75 113 39 -3.242330806849 2.3931345474678 0.57692960147398 107.3315913171
364	230269 1169 215 9026 74 113 40 0.70547873038548 13.874238948463 373.51470515754 4294.9362661369
355	231438 995 74 9026 73 113 41 233.5535074084 423.4 15219.800343027 5852288.8041615
354	232433 1005 74 9026 73 113 41 226.6 411.63434975442 11145.856019447 3200046.275947
143	233438 2228 31 9026 30 113 84 0.973 8.9467829460454 240.09262670725 1032.4950037375
142	235666 2498 31 9026 30 113 84 -4.3963258650393 2.2543822468089 9.8253927135217 164.88898855956
139	238164 2376 30 9026 29 113 85 0.47135031755743 13.885897054498 960.74735015734 12073.70661075
131	240540 2253 29 9026 28 113 86 26.6 419.28165315653 16669.02870058 4910516.7741896
130	242793 1761 29 9026 28 113 86 426.6 626.6 48313.337557788 27772747.363859
vector 557 Sim2Scenario.node[111].veinsmobility speed ETV
173	244613 2138 37 9028 36 114 79 0.973 8.6463184930686 213.0890337784 837.60569399658
172	246751 2369 37 9028 36 114 79 -4.4321159163695 2.1716121752001 9.7358195982165 107.09427304509
169	249120 2230 36 9028 35 114 80 3.6198529009917 13.888527249962 980.15822083266 12717.221521637
161	251350 1913 35 9028 34 114 81 23.4 611.63318202506 16147.25750566 6592708.434583
160	253263 1817 35 9028 34 114 81 631.24517675501 826.6 63243.0953127 49744064.345221
vector 558 Sim2Scenario.node[112].veinsmobility posx ETV
vector 559 Sim2Scenario.node[112].veinsmobility posy ETV
vector 560 Sim2Scenario.node[111].veinsmobility acceleration ETV
vector 561 Sim2Scenario.node[111].veinsmobility co2emission ETV
vector 562 Sim2Scenario.node[113].veinsmobility posx ETV
vector 563 Sim2Scenario.node[113].veinsmobility posy ETV
vector 564 Sim2Scenario.node[114].veinsmobility posx ETV
vector 565 Sim2Scenario.node[114].veinsmobility posy ETV
vector 566 Sim2Scenario.node[115].veinsmobility posx ETV
vector 567 Sim2Scenario.node[115].veinsmobility posy ETV
vector 568 Sim2Scenario.node[112].veinsmobility speed ETV
vector 569 Sim2Scenario.node[116].veinsmobility posx ETV
vector 570 Sim2Scenario.node[116].veinsmobility posy ETV
vector 571 Sim2Scenario.node[112].veinsmobility acceleration ETV
vector 572 Sim2Scenario.node[112].veinsmobility co2emission ETV
vector 573 Sim2Scenario.node[113].veinsmobility speed ETV
vector 574 Sim2Scenario.node[114].veinsmobility speed ETV
vector 575 Sim2Scenario.node[115].veinsmobility speed ETV
vector 576 Sim2Scenario.node[113].veinsmobility acceleration ETV
vector 577 Sim2Scenario.node[113].veinsmobility co2emission ETV
vector 578 Sim2Scenario.node[114].veinsmobility acceleration ETV
vector 579 Sim2Scenario.node[114].veinsmobility co2emission ETV
vector 580 Sim2Scenario.node[115].veinsmobility acceleration ETV
vector 581 Sim2Scenario.node[115].veinsmobility co2emission ETV
vector 582 Sim2Scenario.node[116].veinsmobility speed ETV
338	256610 1364 70 9032 69 118 50 0.973 8.2213648897572 156.23320745929 743.8284702504
337	257974 1532 70 9032 69 118 50 -3.3997430615216 2.3240557021252 9.6678536518076 111.27319381335
334	259506 1478 69 9032 68 118 51 3.6424530400033 13.887176382102 565.53786705501 6927.3615518481
324	260984 1156 68 9032 67 118 52 642.0064064313 826.6 41584.089487793 33386489.024473
323	262140 1364 68 9032 67 118 52 230.68452876831 426.6 18403.634240377 6775800.5709432
vector 583 Sim2Scenario.node[117].veinsmobility posx ETV
vector 584 Sim2Scenario.node[117].veinsmobility posy ETV
vector 585 Sim2Scenario.node[118].veinsmobility posx ETV
vector 586 Sim2Scenario.node[118].veinsmobility posy ETV
vector 587 Sim2Scenario.node[116].veinsmobility acceleration ETV
vector 588 Sim2Scenario.node[116].veinsmobility co2emission ETV
vector 589 Sim2Scenario.node[119].veinsmobility posx ETV
vector 590 Sim2Scenario.node[119].veinsmobility posy ETV
vector 591 Sim2Scenario.node[117].veinsmobility speed ETV
vector 592 Sim2Scenario.node[118].veinsmobility speed ETV
193	264101 2158 41 9034 40 120 81 0.973 9.1702128466764 226.8643021953 926.74960004126
192	266259 2417 41 9034 40 120 81 -3.2601261038233 2.1511138456408 9.8534128025123 100.94307870868
189	268676 2320 40 9034 39 120 82 3.767400909906 13.88717813147 981.89936627677 12418.02246676
181	270996 2207 39 9034 38 120 83 38.389116823078 826.6 42111.474984421 27368658.804745
180	273203 1681 39 9034 38 120 83 623.4 815.15440177172 53187.055668799 34247018.028793
vector 593 Sim2Scenario.node[117].veinsmobility acceleration ETV
vector 594 Sim2Scenario.node[117].veinsmobility co2emission ETV
vector 595 Sim2Scenario.node[118].veinsmobility acceleration ETV
vector 596 Sim2Scenario.node[118].veinsmobility co2emission ETV
vector 597 Sim2Scenario.node[119].veinsmobility speed ETV
246	275205 1888 52 9035 51 121 71 0.973 8.2398725508285 214.78577890071 992.40906623815
245	277093 2130 52 9035 51 121 71 -3.3275160373824 2.4617313017789 9.8258826323861 168.64813115673
244	279223 2051 51 9035 50 121 72 0.75646728983885 13.888246729195 772.74379270208 9429.8217119008
236	281274 1515 50 9035 49 121 73 439.50001271729 623.4 44175.095457953 26875310.053406
235	282789 1940 50 9035 49 121 73 226.6 811.63186995971 32709.73722041 17556317.8546
vector 598 Sim2Scenario.node[120].veinsmobility posx ETV
vector 599 Sim2Scenario.node[120].veinsmobility posy ETV
vector 600 Sim2Scenario.node[119].veinsmobility acceleration ETV
vector 601 Sim2Scenario.node[119].veinsmobility co2emission ETV
vector 602 Sim2Scenario.node[121].veinsmobility posx ETV
vector 603 Sim2Scenario.node[121].veinsmobility posy ETV
vector 604 Sim2Scenario.node[122].veinsmobility posx ETV
vector 605 Sim2Scenario.node[122].veinsmobility posy ETV
vector 606 Sim2Scenario.node[120].veinsmobility speed ETV
328	285267 1650 68 9037 67 123 57 1.6289254335158 8.5977309010216 136.9255846108 421.83175768043
327	286917 1772 68 9037 67 123 57 -0.11653212905861 2.0138367303484 9.7912304844673 18.383620553171
322	288689 1683 67 9037 66 123 58 4.0842017949011 13.889037982535 771.7336822687 10466.922061626
315	290372 1711 66 9037 65 123 59 45.235599357677 811.63797165498 26228.021923386 14861298.770945
314	292083 1125 66 9037 65 123 59 626.6 626.6 36969.4 23165026.04
vector 607 Sim2Scenario.node[120].veinsmobility acceleration ETV
vector 608 Sim2Scenario.node[120].veinsmobility co2emission ETV
vector 609 Sim2Scenario.node[121].veinsmobility speed ETV
vector 610 Sim2Scenario.node[122].veinsmobility speed ETV
vector 611 Sim2Scenario.node[123].veinsmobility posx ETV
vector 612 Sim2Scenario.node[123].veinsmobility posy ETV
vector 613 Sim2Scenario.node[121].veinsmobility acceleration ETV
vector 614 Sim2Scenario.node[121].veinsmobility co2emission ETV
vector 615 Sim2Scenario.node[122].veinsmobility acceleration ETV
vector 616 Sim2Scenario.node[122].veinsmobility co2emission ETV
vector 617 Sim2Scenario.node[124].veinsmobility posx ETV
vector 618 Sim2Scenario.node[124].veinsmobility posy ETV
vector 619 Sim2Scenario.node[125].veinsmobility posx ETV
vector 620 Sim2Scenario.node[125].veinsmobility posy ETV
vector 621 Sim2Scenario.node[123].veinsmobility speed ETV
198	294126 2270 42 9040 41 126 86 0.973 8.3189484962482 264.46476369824 1229.3365675153
197	296396 2567 42 9040 41 126 86 -4.4050577065927 2.3569873144012 7.0538980857998 217.85308532601
194	298963 2474 41 9040 40 126 87 1.6844892274512 13.889281753399 962.86433862538 11711.763313532
186	301437 1969 40 9040 39 126 88 226.6 426.6 30397.369994379 11146067.651973
185	303406 2202 40 9040 39 126 88 38.337922191965 623.4 35347.010393707 17065442.467516
vector 622 Sim2Scenario.node[126].veinsmobility posx ETV
vector 623 Sim2Scenario.node[126].veinsmobility posy ETV
vector 624 Sim2Scenario.node[123].veinsmobility acceleration ETV
vector 625 Sim2Scenario.node[123].veinsmobility co2emission ETV
vector 626 Sim2Scenario.node[124].veinsmobility speed ETV
vector 627 Sim2Scenario.node[125].veinsmobility speed ETV
333	305973 1719 69 9041 68 127 60 0.973 8.1983426062793 158.19270608224 583.06074637092
332	307692 1869 69 9041 68 127 60 -4.4791034552525 2.0409841470467 9.559721091441 57.687496624897
329	309561 1775 68 9041 67 127 61 4.2432959168753 13.888311080926 781.87953445108 10356.556600777
318	311336 1641 67 9041 66 127 62 23.4 611.60726673913 15680.696081218 6599020.6477181
317	312977 1348 67 9041 66 127 62 636.06410471851 826.6 49821.372177503 40187676.605724
148	314325 2488 32 9041 31 127 97 0.973 8.1190995346742 256.53624512526 1048.5195618181
147	316813 2807 32 9041 31 127 97 -3.2995617250674 2.4994437236432 9.9555360930673 175.25864225879
144	319620 2696 31 9041 30 127 98 0 13.889716980581 953.6401454652 11728.604571195
136	322316 2353 30 9041 29 127 99 230.64510468733 626.6 48734.924582762 26326565.269524
135	324669 2286 30 9041 29 127 99 223.4 419.14426873706 27816.942806649 8370700.9931851
vector 628 Sim2Scenario.node[127].veinsmobility posx ETV
vector 629 Sim2Scenario.node[127].veinsmobility posy ETV
vector 630 Sim2Scenario.node[124].veinsmobility acceleration ETV
vector 631 Sim2Scenario.node[124].veinsmobility co2emission ETV
vector 632 Sim2Scenario.node[125].veinsmobility acceleration ETV
vector 633 Sim2Scenario.node[125].veinsmobility co2emission ETV
vector 634 Sim2Scenario.node[126].veinsmobility speed ETV
vector 635 Sim2Scenario.node[126].veinsmobility acceleration ETV
vector 636 Sim2Scenario.node[126].veinsmobility co2emission ETV
vector 637 Sim2Scenario.node[127].veinsmobility speed ETV
233	327582 2217 49 9043 48 129 82 0.973 9.2900342014279 240.15284091204 1085.5898415275
232	329799 2479 49 9043 48 129 82 -4.5 2.5056999920122 7.9284470665983 161.38018570705
229	332278 2373 48 9043 47 129 83 3.4806000096546 13.886927406536 969.10297292563 12091.377447174
221	334651 2096 47 9043 46 129 84 226.6 626.6 34035.658660486 15852814.88289
220	336747 1919 47 9043 46 129 84 26.6 414.41291543733 15286.75724049 3744683.4380387
vector 638 Sim2Scenario.node[128].veinsmobility posx ETV
vector 639 Sim2Scenario.node[128].veinsmobility posy ETV
vector 640 Sim2Scenario.node[127].veinsmobility acceleration ETV
vector 641 Sim2Scenario.node[127].veinsmobility co2emission ETV
223	338913 2274 47 9044 46 130 85 0.973 8.5358166461173 259.06921006673 1193.9884264333
222	341187 2561 47 9044 46 130 85 -4.401811488183 2.4689556282852 9.6545605171543 193.13190633059
219	343748 2459 46 9044 45 130 86 3.5684427641658 13.887871305465 962.78347229173 11793.126082339
210	346207 1978 45 9044 44 130 87 433.53263560446 826.6 61724.052848053 45019838.067785
209	348185 2160 45 9044 44 130 87 26.6 419.34472279931 18335.925115274 5260156.5777602
93	350345 2890 21 9044 20 130 111 0.973 8.560646659091 299.54766877958 1191.0441094508
92	353235 3218 21 9044 20 130 111 -4.5 2.3399011120154 9.8791948468718 147.80364307995
89	356453 3041 20 9044 19 130 112 3.8093035120389 13.889778816074 1373.791307086 17763.772751719
81	359494 2781 19 9044 18 130 113 33.029654857575 823.4 65777.884253092 45563087.139216
80	362275 2269 19 9044 18 130 113 226.6 623.4 39318.832840473 16696106.020349
vector 642 Sim2Scenario.node[128].veinsmobility speed ETV
306	364603 1876 64 9045 63 131 69 0.973 8.5840116943141 212.03407308833 992.35854694548
305	366479 2098 64 9045 63 131 69 -3.3178589464702 2.288608036798 9.9481832498403 158.87261939827
304	368577 2033 63 9045 62 131 70 3.5503166571353 13.885325684922 773.95478007328 9458.4485517004
293	370610 1363 62 9045 61 131 71 223.4 226.6 16035.707151187 3621872.4266551
292	371973 2057 62 9045 61 131 71 238.37225903636 819.35357559352 40840.740299058 25827759.085779
163	374030 2661 35 9045 34 131 98 0.973 9.036768886417 287.44964230955 1287.5122205698
162	376691 2955 35 9045 34 131 98 -4.4733280408103 2.5351109755947 9.901136774805 204.29829566363
159	379646 2798 34 9045 33 131 99 3.2955384934693 13.888158038252 1159.0691475459 14605.53674842
151	382444 2513 33 9045 32 131 100 23.4 619.16647523162 30005.575053122 12877000.821558
150	384957 2212 33 9045 32 131 100 623.4 826.6 69512.620667597 49027137.192996
vector 643 Sim2Scenario.node[129].veinsmobility posx ETV
vector 644 Sim2Scenario.node[129].veinsmobility posy ETV
vector 645 Sim2Scenario.node[130].veinsmobility posx ETV
vector 646 Sim2Scenario.node[130].veinsmobility posy ETV
vector 647 Sim2Scenario.node[128].veinsmobility acceleration ETV
vector 648 Sim2Scenario.node[128].veinsmobility co2emission ETV
vector 649 Sim2Scenario.node[131].veinsmobility posx ETV
vector 650 Sim2Scenario.node[131].veinsmobility posy ETV
vector 651 Sim2Scenario.node[129].veinsmobility speed ETV
vector 652 Sim2Scenario.node[130].veinsmobility speed ETV
vector 653 Sim2Scenario.node[129].veinsmobility acceleration ETV
vector 654 Sim2Scenario.node[129].veinsmobility co2emission ETV
vector 655 Sim2Scenario.node[130].veinsmobility acceleration ETV
vector 656 Sim2Scenario.node[130].veinsmobility co2emission ETV
vector 657 Sim2Scenario.node[131].veinsmobility speed ETV
vector 658 Sim2Scenario.node[132].veinsmobility posx ETV
vector 659 Sim2Scenario.node[132].veinsmobility posy ETV
vector 660 Sim2Scenario.node[131].veinsmobility acceleration ETV
vector 661 Sim2Scenario.node[131].veinsmobility co2emission ETV
528	388334 846 9020 9049 107 135 29 0.973 8.8867294314825 82.679938559968 348.71110961247
527	389180 917 9020 9049 107 135 29 -2.3796182118796 2.0758351031388 7.7134685870261 29.358472381527
524	390097 895 9019 9049 106 135 30 4.1192692633652 13.886798933262 376.72631804947 4920.8346254451
516	390992 928 9018 9049 105 135 31 238.36142374686 610.54810188234 12808.513404701 5728973.165805
515	391920 620 9018 9049 105 135 31 623.4 623.4 19325.4 12047454.36
vector 662 Sim2Scenario.node[133].veinsmobility posx ETV
vector 663 Sim2Scenario.node[133].veinsmobility posy ETV
vector 664 Sim2Scenario.node[132].veinsmobility speed ETV
326	392715 1919 68 9050 67 136 70 0.973 8.4504598869597 195.9957163933 818.65513478009
325	394634 2154 68 9050 67 136 70 -3.2022346731543 2.1666685584957 9.6429037289374 130.78090059044
321	396788 2071 67 9050 66 136 71 0.44675621849194 13.889469495229 771.99911921297 9697.5363021414
313	398859 1948 66 9050 65 136 72 23.4 419.30383994728 15293.867556749 4841176.8307614
312	400807 1592 66 9050 65 136 72 235.08884824266 426.6 29211.385568424 12008702.710819
vector 665 Sim2Scenario.node[132].veinsmobility acceleration ETV
vector 666 Sim2Scenario.node[132].veinsmobility co2emission ETV
vector 667 Sim2Scenario.node[133].veinsmobility speed ETV
283	402589 2194 60 9051 59 137 79 0.973 8.8441076821391 221.79631722259 933.15852148248
282	404783 2434 60 9051 59 137 79 -4.2847488506509 2.3837023838563 10.744322868362 113.64325622098
279	407217 2312 59 9051 58 137 80 3.0587708754673 13.889430486427 983.32094625721 12707.172336848
271	409529 2029 58 9051 57 137 81 223.4 823.4 42902.828810061 27341695.161963
270	411558 1895 58 9051 57 137 81 432.56340061027 816.45102702942 51225.847413312 32869787.949407
38	413453 3177 10 9051 9 137 129 0.973 8.2913584450525 366.13965689935 1646.2176641421
37	416630 3687 10 9051 9 137 129 -4.3678160246992 2.483863803742 -0.47962212988814 309.23367795239
34	420317 3532 9 9051 8 137 130 1.0785633836859e-009 13.886526254779 1361.647796837 16574.998721486
26	423849 2988 8 9051 7 137 131 230.6489579221 814.20731402866 71788.166351935 42540075.89112
25	426837 2869 8 9051 7 137 131 223.4 826.6 75897.898225361 52117443.537127
vector 668 Sim2Scenario.node[134].veinsmobility posx ETV
vector 669 Sim2Scenario.node[134].veinsmobility posy ETV
vector 670 Sim2Scenario.node[133].veinsmobility acceleration ETV
vector 671 Sim2Scenario.node[133].veinsmobility co2emission ETV
228	429953 2586 48 9312 47 138 92 0.973 8.4480963136712 239.15402283089 874.33198244828
227	432539 2832 48 9312 47 138 92 -4.410902619316 2.0973202099791 9.7838412555831 101.55091109285
224	435371 2667 47 9312 46 138 93 4.0514964356029 13.889670290884 1178.2097530615 15512.889617596
214	438038 2079 46 9312 45 138 94 426.6 826.6 65503.979798715 48162697.534648
213	440117 2408 46 9312 45 138 94 34.375117776587 812.97907772734 45749.003979693 26664921.59207
393	442525 1605 8373 9312 80 138 59 0.973 8.3901532165709 167.93106569557 735.68071621963
392	444130 1793 8373 9312 80 138 59 -3.4218786610743 2.2034879716297 9.6756176636379 122.3613735355
389	445923 1720 7118 9312 79 138 60 0 13.884507008698 579.01188581721 7045.3700674883
381	447643 1357 7117 9312 78 138 61 623.4 811.82923101834 39421.749126078 25624571.247694
380	449000 1618 7117 9312 78 138 61 23.4 411.62985418206 10613.658996761 2836614.1673559
vector 672 Sim2Scenario.node[135].veinsmobility posx ETV
vector 673 Sim2Scenario.node[135].veinsmobility posy ETV
vector 674 Sim2Scenario.node[136].veinsmobility posx ETV
vector 675 Sim2Scenario.node[136].veinsmobility posy ETV
vector 676 Sim2Scenario.node[137].veinsmobility posx ETV
vector 677 Sim2Scenario.node[137].veinsmobility posy ETV
vector 678 Sim2Scenario.node[134].veinsmobility speed ETV
vector 679 Sim2Scenario.node[138].veinsmobility posx ETV
vector 680 Sim2Scenario.node[138].veinsmobility posy ETV
vector 681 Sim2Scenario.node[134].veinsmobility acceleration ETV
vector 682 Sim2Scenario.node[134].veinsmobility co2emission ETV
vector 683 Sim2Scenario.node[135].veinsmobility speed ETV
vector 684 Sim2Scenario.node[136].veinsmobility speed ETV
vector 685 Sim2Scenario.node[137].veinsmobility speed ETV
168	451449 2837 36 14597 35 140 106 0.973 8.7859659920956 279.16262668984 1110.8364466874
167	454286 3193 36 14597 35 140 106 -4.1234802962164 2.1627707164688 9.9633123372456 172.48396093146
164	457479 3019 35 14597 34 140 107 0 13.889711339779 1160.6287850254 14768.841148937
156	460498 2537 34 14597 33 140 108 223.4 826.6 51163.465261278 31061141.5825
155	463035 2615 34 14597 33 140 108 238.38965383801 618.89149044856 49229.646478616 23386276.316912
133	465650 3062 29 14597 28 140 113 0.973 8.6813840006788 317.05513746165 1301.9531134848
132	468712 3372 29 14597 28 140 113 -4.5 2.3392118598428 9.8045844249088 201.01781508638
129	472084 3240 28 14597 27 140 114 3.3364307992526 13.889716829786 1354.9500045296 17260.932424418
121	475324 2462 27 14597 26 140 115 26.6 226.6 13395.310890071 2475956.5644652
120	477786 2928 27 14597 26 140 115 26.6 818.75427615532 50957.263971273 31432899.807857
vector 686 Sim2Scenario.node[139].veinsmobility posx ETV
vector 687 Sim2Scenario.node[139].veinsmobility posy ETV
vector 688 Sim2Scenario.node[135].veinsmobility acceleration ETV
vector 689 Sim2Scenario.node[135].veinsmobility co2emission ETV
vector 690 Sim2Scenario.node[136].veinsmobility acceleration ETV
vector 691 Sim2Scenario.node[136].veinsmobility co2emission ETV
vector 692 Sim2Scenario.node[137].veinsmobility acceleration ETV
vector 693 Sim2Scenario.node[137].veinsmobility co2emission ETV
vector 694 Sim2Scenario.node[138].veinsmobility speed ETV
188	481282 2647 40 14598 39 141 103 0.973 8.9900662044285 259.77176625248 1051.0774370165
187	483929 3134 40 14598 39 141 103 -4.4973848274443 2.1667686342169 1.3769789992805 200.61640596561
184	487063 3018 39 14598 38 141 104 4.5688390770288e-014 13.886695412521 970.5182066383 11991.306702634
176	490081 2479 38 14598 37 141 105 423.4 823.4 62773.488424162 40403017.895128
175	492560 2476 38 14598 37 141 105 432.71307758272 823.4 65409.727490921 42633813.052193
vector 695 Sim2Scenario.node[138].veinsmobility acceleration ETV
vector 696 Sim2Scenario.node[138].veinsmobility co2emission ETV
vector 697 Sim2Scenario.node[139].veinsmobility speed ETV
383	495226 1816 7117 17323 78 142 65 0.973 8.509893574954 184.05815390188 785.07090515738
382	497042 2031 7117 17323 78 142 65 -3.0389487978061 2.2438406627672 4.985047917553 112.33591663732
379	499073 1953 3692 17323 77 142 66 3.4078042267277 13.881412461533 775.54155752129 9711.7567889288
371	501026 1821 3691 17323 76 142 67 223.4 812.19254564834 29972.393776565 16202859.484624
370	502847 1497 3691 17323 76 142 67 239.69446466048 426.6 26909.7832135 10993652.975217
vector 698 Sim2Scenario.node[140].veinsmobility posx ETV
vector 699 Sim2Scenario.node[140].veinsmobility posy ETV
vector 700 Sim2Scenario.node[141].veinsmobility posx ETV
vector 701 Sim2Scenario.node[141].veinsmobility posy ETV
vector 702 Sim2Scenario.node[139].veinsmobility acceleration ETV
vector 703 Sim2Scenario.node[139].veinsmobility co2emission ETV
vector 704 Sim2Scenario.node[142].veinsmobility posx ETV
vector 705 Sim2Scenario.node[142].veinsmobility posy ETV
vector 706 Sim2Scenario.node[140].veinsmobility speed ETV
vector 707 Sim2Scenario.node[141].veinsmobility speed ETV
vector 708 Sim2Scenario.node[143].veinsmobility posx ETV
vector 709 Sim2Scenario.node[143].veinsmobility posy ETV
vector 710 Sim2Scenario.node[140].veinsmobility acceleration ETV
vector 711 Sim2Scenario.node[140].veinsmobility co2emission ETV
vector 712 Sim2Scenario.node[141].veinsmobility acceleration ETV
vector 713 Sim2Scenario.node[141].veinsmobility co2emission ETV
vector 714 Sim2Scenario.node[142].veinsmobility speed ETV
455	505378 1459 9004 18474 93 145 53 0.973 7.9347222862624 158.40609589866 723.07399196967
454	506837 1654 9004 18474 93 145 53 -3.269986056284 2.558159763217 1.6540838676045 139.69787324263
451	508491 1613 9003 18474 92 145 54 2.9560310245383 13.889128500514 570.65690984366 6773.2568279079
441	510104 1483 9002 18474 91 145 55 437.54726869239 812.18256795093 34324.45243415 21950532.789655
440	511587 1296 9002 18474 91 145 55 223.4 423.4 17772.269854887 6187872.8012959
vector 715 Sim2Scenario.node[144].veinsmobility posx ETV
vector 716 Sim2Scenario.node[144].veinsmobility posy ETV
vector 717 Sim2Scenario.node[142].veinsmobility acceleration ETV
vector 718 Sim2Scenario.node[142].veinsmobility co2emission ETV
vector 719 Sim2Scenario.node[143].veinsmobility speed ETV
vector 720 Sim2Scenario.node[145].veinsmobility posx ETV
vector 721 Sim2Scenario.node[145].veinsmobility posy ETV
vector 722 Sim2Scenario.node[143].veinsmobility acceleration ETV
vector 723 Sim2Scenario.node[143].veinsmobility co2emission ETV
vector 724 Sim2Scenario.node[144].veinsmobility speed ETV
301	513495 2349 63 18827 62 147 86 0.973 8.7141200065757 258.1488165615 1190.3581200001
300	515844 2639 63 18827 62 147 86 -4.4327737303049 2.1773856997699 9.7729459587604 190.70415378167
296	518483 2538 62 18827 61 147 87 3.6041995148221 13.88848846378 960.96175421852 11665.295686463
286	521021 1872 61 18827 60 147 88 423.4 623.4 42958.847491803 21618155.37411
285	522893 2414 61 18827 60 147 88 226.6 619.14015567535 34179.164107772 14862807.017749
vector 725 Sim2Scenario.node[144].veinsmobility acceleration ETV
vector 726 Sim2Scenario.node[144].veinsmobility co2emission ETV
vector 727 Sim2Scenario.node[145].veinsmobility speed ETV
378	525497 2009 3692 18933 77 148 72 0.973 8.8712692664977 195.86301494511 829.18393921255
377	527506 2237 3692 18933 77 148 72 -3.1711689246686 2.1707262791414 9.5890239867509 125.50732507171
374	529743 2119 3691 18933 76 148 73 0 13.888210253399 761.78668404183 9550.5050076983
366	531862 1957 216 18933 75 148 74 223.4 619.35158927773 28082.64062553 12332579.075437
365	533819 1716 216 18933 75 148 74 623.4 811.60121273751 48106.366969947 31479972.0549
vector 728 Sim2Scenario.node[146].veinsmobility posx ETV
vector 729 Sim2Scenario.node[146].veinsmobility posy ETV
vector 730 Sim2Scenario.node[147].veinsmobility posx ETV
vector 731 Sim2Scenario.node[147].veinsmobility posy ETV
vector 732 Sim2Scenario.node[145].veinsmobility acceleration ETV
vector 733 Sim2Scenario.node[145].veinsmobility co2emission ETV
vector 734 Sim2Scenario.node[148].veinsmobility posx ETV
vector 735 Sim2Scenario.node[148].veinsmobility posy ETV
vector 736 Sim2Scenario.node[146].veinsmobility speed ETV
vector 737 Sim2Scenario.node[147].veinsmobility speed ETV
vector 738 Sim2Scenario.node[149].veinsmobility posx ETV
vector 739 Sim2Scenario.node[149].veinsmobility posy ETV
vector 740 Sim2Scenario.node[146].veinsmobility acceleration ETV
vector 741 Sim2Scenario.node[146].veinsmobility co2emission ETV
vector 742 Sim2Scenario.node[147].veinsmobility acceleration ETV
vector 743 Sim2Scenario.node[147].veinsmobility co2emission ETV
vector 744 Sim2Scenario.node[148].veinsmobility speed ETV
413	536569 1899 8725 19083 84 151 68 0.973 8.2198825332967 208.9563484095 972.71859653794
412	538468 2132 8725 19083 84 151 68 -3.3476762507234 2.391531939127 9.7490219854807 153.19310442449
409	540600 2046 8565 19083 83 151 69 3.6264606456858 13.882263697905 761.52645706364 9271.1205649402
401	542646 1729 8564 19083 82 151 70 423.4 619.33140658007 33318.691567484 16197262.608633
400	544375 1750 8564 19083 82 151 70 23.4 411.63047159894 9049.2655974332 2386744.7643251
vector 745 Sim2Scenario.node[150].veinsmobility posx ETV
vector 746 Sim2Scenario.node[150].veinsmobility posy ETV
vector 747 Sim2Scenario.node[148].veinsmobility acceleration ETV
vector 748 Sim2Scenario.node[148].veinsmobility co2emission ETV
vector 749 Sim2Scenario.node[149].veinsmobility speed ETV
vector 750 Sim2Scenario.node[151].veinsmobility posx ETV
vector 751 Sim2Scenario.node[151].veinsmobility posy ETV
vector 752 Sim2Scenario.node[149].veinsmobility acceleration ETV
vector 753 Sim2Scenario.node[149].veinsmobility co2emission ETV
vector 754 Sim2Scenario.node[150].veinsmobility speed ETV
vector 755 Sim2Scenario.node[152].veinsmobility posx ETV
vector 756 Sim2Scenario.node[152].veinsmobility posy ETV
vector 757 Sim2Scenario.node[150].veinsmobility acceleration ETV
vector 758 Sim2Scenario.node[150].veinsmobility co2emission ETV
vector 759 Sim2Scenario.node[151].veinsmobility speed ETV
vector 760 Sim2Scenario.node[153].veinsmobility posx ETV
vector 761 Sim2Scenario.node[153].veinsmobility posy ETV
vector 762 Sim2Scenario.node[154].veinsmobility posx ETV
vector 763 Sim2Scenario.node[154].veinsmobility posy ETV
vector 764 Sim2Scenario.node[151].veinsmobility acceleration ETV
vector 765 Sim2Scenario.node[151].veinsmobility co2emission ETV
vector 766 Sim2Scenario.node[152].veinsmobility speed ETV
238	547465 2903 50 19089 49 155 107 0.973 8.1669290269885 284.69258972148 1150.2506334405
237	550368 3297 50 19089 49 155 107 -3.4334180988037 2.3572421271622 8.142690545619 188.55151602305
234	553665 3123 49 19089 48 155 108 0 13.88905588744 1166.2707016807 14625.349426225
226	556788 2837 48 19089 47 155 109 23.4 811.65455643876 38436.999033359 19780410.202096
225	559625 2512 48 19089 47 155 109 244.67685805081 626.6 54548.151782647 28648235.216945
vector 767 Sim2Scenario.node[152].veinsmobility acceleration ETV
vector 768 Sim2Scenario.node[152].veinsmobility co2emission ETV
vector 769 Sim2Scenario.node[153].veinsmobility speed ETV
vector 770 Sim2Scenario.node[154].veinsmobility speed ETV
438	562386 1902 9001 19090 90 156 67 0.973 8.8824604111579 207.29123913782 977.57499945891
437	564288 2119 9001 19090 90 156 67 -4.0571815653527 2.4750015032943 9.9159882148146 153.25552166185
434	566407 2038 9000 19090 89 156 68 3.6377375889197 13.888161151374 763.47989232628 9398.4405574923
428	568445 1753 8999 19090 88 156 69 31.649528550072 223.4 11700.532058313 2308516.6795047
427	570198 1743 8999 19090 88 156 69 38.167241051544 426.6 23084.001986295 8748362.8208997
343	571941 2439 71 19090 70 156 87 0.973 8.8743204671617 246.32365762731 1031.0350028581
342	574380 2724 71 19090 70 156 87 -3.3434768167165 2.3870572376181 9.6830719375476 163.90817977573
339	577104 2607 70 19090 69 156 88 0.51999104696287 13.888102172543 977.04118259125 12187.667483841
331	579711 2303 69 19090 68 156 89 423.4 826.6 58147.393110727 40311370.390321
330	582014 2149 69 19090 68 156 89 223.4 426.6 26718.429052954 8656944.6205548
vector 771 Sim2Scenario.node[155].veinsmobility posx ETV
vector 772 Sim2Scenario.node[155].veinsmobility posy ETV
vector 773 Sim2Scenario.node[153].veinsmobility acceleration ETV
vector 774 Sim2Scenario.node[153].veinsmobility co2emission ETV
vector 775 Sim2Scenario.node[154].veinsmobility acceleration ETV
vector 776 Sim2Scenario.node[154].veinsmobility co2emission ETV
433	584541 1939 9000 19091 89 157 69 0.973 8.8912027941125 209.61440649514 964.19640546338
432	586480 2172 9000 19091 89 157 69 -4.4959129561158 2.4891451420519 11.075226740505 152.04586976376
429	588652 2097 8999 19091 88 157 70 2.7718158283172 13.888290543826 764.58231634037 9259.6052885712
424	590749 1615 8998 19091 87 157 71 223.4 423.4 20640.92304221 6520900.8698009
423	592364 1980 8998 19091 87 157 71 30.688870490427 223.4 10665.620893767 1933714.8908121
vector 777 Sim2Scenario.node[156].veinsmobility posx ETV
vector 778 Sim2Scenario.node[156].veinsmobility posy ETV
vector 779 Sim2Scenario.node[155].veinsmobility speed ETV
266	594519 2847 56 19092 55 158 104 0.973 8.9781462284846 299.13125038389 1316.9471272729
265	597366 3207 56 19092 55 158 104 -4.4082019142131 2.4513493493875 9.9595671111963 209.57497596953
262	600573 3066 55 19092 54 158 105 7.5887866031219e-013 13.885469644689 1156.1309462631 14398.690880409
255	603639 2571 54 19092 53 158 106 23.4 609.64793260522 23935.17866935 9569176.2734316
254	606210 2660 54 19092 53 158 106 430.61027117703 823.4 66455.36732854 43227824.932855
443	608870 1905 9002 19092 91 158 68 0.973 8.5198119946133 209.94223633419 982.42164936898
442	610775 2142 9002 19092 91 158 68 -3.3341130374569 2.3459607706103 9.6739095389226 160.30995697762
439	612917 2070 9001 19092 90 158 69 3.5325768265105 13.886891664073 761.48023381336 9284.5411088273
431	614987 1616 9000 19092 89 158 70 423.4 611.63083093565 31532.057347049 14410838.61374
430	616603 1931 9000 19092 89 158 70 30.694179051285 426.6 17530.830213637 5872057.8967375
vector 780 Sim2Scenario.node[157].veinsmobility posx ETV
vector 781 Sim2Scenario.node[157].veinsmobility posy ETV
vector 782 Sim2Scenario.node[158].veinsmobility posx ETV
vector 783 Sim2Scenario.node[158].veinsmobility posy ETV
vector 784 Sim2Scenario.node[155].veinsmobility acceleration ETV
vector 785 Sim2Scenario.node[155].veinsmobility co2emission ETV
vector 786 Sim2Scenario.node[156].veinsmobility speed ETV
vector 787 Sim2Scenario.node[159].veinsmobility posx ETV
vector 788 Sim2Scenario.node[159].veinsmobility posy ETV
vector 789 Sim2Scenario.node[156].veinsmobility acceleration ETV
vector 790 Sim2Scenario.node[156].veinsmobility co2emission ETV
vector 791 Sim2Scenario.node[157].veinsmobility speed ETV
vector 792 Sim2Scenario.node[158].veinsmobility speed ETV
vector 793 Sim2Scenario.node[160].veinsmobility posx ETV
vector 794 Sim2Scenario.node[160].veinsmobility posy ETV
vector 795 Sim2Scenario.node[157].veinsmobility acceleration ETV
vector 796 Sim2Scenario.node[157].veinsmobility co2emission ETV
vector 797 Sim2Scenario.node[158].veinsmobility acceleration ETV
vector 798 Sim2Scenario.node[158].veinsmobility co2emission ETV
vector 799 Sim2Scenario.node[159].veinsmobility speed ETV
353	619758 2478 73 19095 72 161 90 0.973 9.2999136857461 269.78676437678 1245.9833290501
352	622236 2807 73 19095 72 161 90 -3.390826829892 2.2220005456218 9.6378042052503 218.09034956142
347	625043 2707 72 19095 71 161 91 0.45309749876112 13.885665436592 962.06268620394 11654.754112551
341	627750 2206 71 19095 70 161 92 31.029208272061 226.6 16983.297573281 3525107.5389732
340	629956 2379 71 19095 70 161 92 223.4 805.4682097896 35920.016520573 17180321.545728
vector 800 Sim2Scenario.node[161].veinsmobility posx ETV
vector 801 Sim2Scenario.node[161].veinsmobility posy ETV
vector 802 Sim2Scenario.node[159].veinsmobility acceleration ETV
vector 803 Sim2Scenario.node[159].veinsmobility co2emission ETV
vector 804 Sim2Scenario.node[160].veinsmobility speed ETV
108	632641 3335 24 19096 23 162 140 0.973 8.3924905542436 295.99048880862 1091.6531219337
107	635976 3468 24 19096 23 162 140 -4.4649177307171 2.0968713512481 5.8960763773178 173.8847442939
104	639444 3327 23 19096 22 162 141 0 13.885193817336 965.06911931857 11961.201732289
96	642771 3767 22 19096 21 162 142 23.4 419.34332813117 17131.22973894 4548172.6965551
95	646538 3308 22 19096 21 162 142 623.4 826.6 100662.74348739 72629296.467118
543	649846 1499 9023 19096 110 162 53 0.973 8.228834415003 161.65637712114 752.29041412785
542	651345 1677 9023 19096 110 162 53 -3.3535287978283 2.5956712574884 9.7521055280166 122.64706078384
537	653022 1642 9022 19096 109 162 54 0.52244429266086 13.887025615671 562.23100766669 6783.7780583605
531	654664 1301 9021 19096 108 162 55 244.52082863451 426.6 22090.290738499 9001181.5147422
530	655965 1528 9021 19096 108 162 55 631.57230107046 826.6 41152.627509187 31089105.884208
vector 805 Sim2Scenario.node[160].veinsmobility acceleration ETV
vector 806 Sim2Scenario.node[160].veinsmobility co2emission ETV
vector 807 Sim2Scenario.node[161].veinsmobility speed ETV
vector 808 Sim2Scenario.node[162].veinsmobility posx ETV
vector 809 Sim2Scenario.node[162].veinsmobility posy ETV
vector 810 Sim2Scenario.node[161].veinsmobility acceleration ETV
vector 811 Sim2Scenario.node[161].veinsmobility co2emission ETV
418	657930 2302 8726 19099 85 164 80 0.973 8.1879362905643 230.73877443091 994.67279674151
417	660232 2537 8726 19099 85 164 80 -3.8079086890368 2.2367849737266 9.8869707409788 140.03366499858
414	662769 2431 8725 19099 84 164 81 2.8411907375537 13.885780601942 959.04062995847 12155.558584025
406	665200 2034 8565 19099 83 164 82 626.6 823.4 61194.807096754 46220599.024296
405	667234 2121 8565 19099 83 164 82 226.6 623.4 33958.324779511 16161726.122641
[...]
11776	42180178 1358 511292 521472 2357 2400 44 302.16678142983 623.4 23515.174022112 13071037.028597
11775	42181536 1300 511292 521472 2357 2400 44 626.6 811.62474057419 29375.871183366 19786256.257096
11793	42182836 1275 511295 521472 2360 2400 41 0.973 8.4953883486951 109.58643464041 497.03722078248
11792	42184111 1487 511295 521472 2360 2400 41 -3.3486028814172 2.3010467656027 -3.6481031916039 99.546690310126
11789	42185598 1468 511294 521472 2359 2400 42 0.43237918729777 13.881788535086 378.33524150058 4434.3478622231
11781	42187066 1075 511293 521472 2358 2400 43 223.4 223.4 9606.2 2146025.08
11780	42188141 1499 511293 521472 2358 2400 43 432.85976344814 811.60702397071 25620.982134181 15967084.284798
11798	42189640 1315 511296 521472 2361 2400 40 0.973 8.5301444516893 131.45643897251 653.54401359901
11797	42190955 1443 511296 521472 2361 2400 40 -3.1383076551193 2.129150181578 9.7356697435204 92.481050379782
11794	42192398 1428 511295 521472 2360 2400 41 1.7214554379704 13.8874292027 440.07293071725 5292.1063235537
11786	42193826 1070 511294 521472 2359 2400 42 823.4 826.6 34644.307677579 28576962.496487
11785	42194896 1467 511294 521472 2359 2400 42 366.97792141068 619.05513422444 21566.90792696 11304234.260934
11803	42196363 1235 511297 521472 2362 2400 39 0.973 8.5652751309618 108.28937830483 497.69989444182
11802	42197598 1422 511297 521472 2362 2400 39 -3.391771841236 2.1453316410916 -4.0068344733251 100.3844127771
11799	42199020 1382 511296 521472 2361 2400 40 0 13.87112826816 381.24663581477 4531.4598260977
11791	42200402 1231 511295 521472 2360 2400 41 34.379127584333 226.6 7356.2516072163 1503835.9092273
11790	42201633 1226 511295 521472 2360 2400 41 23.4 217.699 3525.5288271267 546197.91304755
11806	42202859 1276 511298 521472 2363 2400 38 0.973 8.0221367349899 115.93781783099 519.89928663704
11805	42204135 1387 511298 521472 2363 2400 38 -3.1333716422979 2.1255976736452 9.77719059447 75.528451609172
11804	42205522 1358 511297 521472 2362 2400 39 1.3483979439369 13.887841111426 432.6895487072 5403.6024049593
11796	42206880 1207 511296 521472 2361 2400 40 223.4 466.11873449414 11204.257002288 3384768.7216766
11795	42208087 1201 511296 521472 2361 2400 40 23.4 211.63367059059 2815.3380133454 369184.69498851
11809	42209288 1173 511300 521472 2364 2400 37 0.973 8.1987230647659 107.55148939861 499.59071392971
11808	42210461 1340 511300 521472 2364 2400 37 -3.1383061924346 2.2477317222138 0.63500464063938 92.732330149603
11807	42211801 1328 511298 521472 2363 2400 38 3.5240629440919 13.886294061388 363.82733311753 4082.6548106728
11801	42213129 995 511297 521472 2362 2400 39 623.4 626.6 24372.857226172 15231794.767333
11800	42214124 1361 511297 521472 2362 2400 39 638.37331446748 818.66074244853 28270.291055889 20645011.182683
11824	42215485 1126 511305 521472 2368 2400 33 0.973 7.8871853115214 97.930900493938 417.32737649903
11823	42216611 1212 511305 521472 2368 2400 33 -2.184521578675 2.0978693463583 11.165755567827 33.602308391994
11819	42217823 1187 511304 521472 2367 2400 34 2.7221830969171 13.887938664744 426.3134870996 5598.8340792982
11813	42219010 1222 511303 521472 2366 2400 35 391.71361690622 812.55025689534 21712.775852829 14077393.883356
11812	42220232 875 511303 521472 2366 2400 35 226.6 226.6 7931 1797164.6
11818	42221107 1126 511304 521472 2367 2400 34 0.973 8.4682076831155 106.45984687611 508.06153258703
11817	42222233 1219 511304 521472 2367 2400 34 -4.5 2.1726721557812 3.1268303295252 98.689118010841
11816	42223452 1217 511303 521472 2366 2400 35 3.8664231259795 13.883584531147 390.46670300469 4756.8026419678
11811	42224669 1058 511302 521472 2365 2400 36 26.6 223.4 2849.4294463761 401525.25000829
11810	42225727 1100 511302 521472 2365 2400 36 638.33793153882 823.4 27864.649938608 21725652.672341
11826	42226827 1074 511305 521472 2368 2400 33 0.973 8.3453504304035 101.73658302712 483.24676826066
11825	42227901 1200 511305 521472 2368 2400 33 -3.3149887674171 2.1311016905173 0.2681867941068 93.2504040684
11820	42229101 1185 511304 521472 2367 2400 34 3.459937476906 13.875629116546 373.76471310541 4520.2764616245
11815	42230286 1074 511303 521472 2366 2400 35 423.4 611.63982198467 16658.60265862 8089290.376158
11814	42231360 1052 511303 521472 2366 2400 35 438.48717343181 626.6 20333.540837586 11956277.628459
11835	42232412 1033 511307 521472 2370 2400 31 0.973 8.4537781635777 100.33889572398 482.71813415679
11834	42233445 1121 511307 521472 2370 2400 31 -3.3451967968463 2.060399646603 9.7278214051595 66.154243072906
11829	42234566 1113 511306 521472 2369 2400 32 3.5221070972993 13.889434860877 342.42391683514 4128.0867532653
11822	42235679 1154 511305 521472 2368 2400 33 31.036614605388 211.62600234159 3698.3186547315 529523.21337352
11821	42236833 835 511305 521472 2368 2400 33 423.4 426.6 14032.224409737 5966848.3479278
11840	42237668 838 511308 521472 2371 2400 30 0.973 7.7075276325511 63.305259622867 257.78056776204
11839	42238506 1133 511308 521472 2371 2400 30 -2.808458421526 2.0693045833497 -3.9999583650622 48.65952062446
11836	42239639 1145 511307 521472 2370 2400 31 4.5396096633596e-014 13.885163519569 163.56265114702 1869.215141722
11828	42240784 800 511306 521472 2369 2400 32 423.4 423.4 13548.8 5736561.92
11827	42241584 1021 511306 521472 2369 2400 32 247.277 411.63345644973 9373.6142574917 2858506.7825902
11848	42242605 972 511309 521472 2372 2400 29 0.973 8.569377109763 97.378938333465 481.12123585068
11847	42243577 1053 511309 521472 2372 2400 29 -3.0494426986408 2.4621098890272 9.8241337630524 64.364756039102
11842	42244630 1046 511308 521472 2371 2400 30 3.9457697443998 13.883579649951 329.66646971663 3983.8032387663
11833	42245676 901 511307 521472 2370 2400 31 426.6 567.84791081886 14037.034058514 6413410.5264743
11832	42246577 975 511307 521472 2370 2400 31 238.35855746487 423.4 11305.155451545 4266460.7037124
11864	42247552 718 511707 521472 2376 2400 25 0.973 8.4212211894153 57.999608310907 249.31197124296
11863	42248270 930 511707 521472 2376 2400 25 -2.6214040754421 2.1045884537254 -3.2728849802848 48.125037383899
11861	42249200 934 511314 521472 2375 2400 26 4.5930901093154e-014 13.8580175926 164.04362540179 1846.2030209731
11854	42250134 675 511313 521472 2374 2400 27 626.6 626.6 16918.2 10600944.12
11853	42250809 892 511313 521472 2374 2400 27 437.65827998765 602.697 14732.642773756 8143005.5872434
11858	42251701 853 511313 521472 2374 2400 27 0.973 7.6792711583493 83.621053638752 408.99435259628
11857	42252554 980 511313 521472 2374 2400 27 -3.1830637348481 2.1699502423638 7.7855309630408 74.377578445183
11852	42253534 972 511310 521472 2373 2400 28 0 13.845603951626 225.88495293126 2523.3233032386
11844	42254506 974 511309 521472 2372 2400 29 423.4 611.61955228247 14129.023614246 7021640.6981092
11843	42255480 845 511309 521472 2372 2400 29 789.59169744393 826.6 23868.160291376 19646547.445808
11875	42256325 798 511708 521472 2377 2400 24 0.973 8.4437607890651 88.670130446794 467.09743837054
11874	42257123 865 511708 521472 2377 2400 24 -3.0579313297732 2.4163688093377 10.70542758155 65.666421930061
11867	42257988 872 511707 521472 2376 2400 25 3.183423217236 13.888850798786 266.31790174354 3162.0748162546
11860	42258860 729 511314 521472 2375 2400 26 755.27943815153 826.6 21257.097692763 17388962.61464
11859	42259589 848 511314 521472 2375 2400 26 33.664216425039 226.6 3892.1637178493 718817.26572549
11866	42260437 830 511707 521472 2376 2400 25 0.973 8.6652332958029 89.268975816405 457.88098156369
11865	42261267 902 511707 521472 2376 2400 25 -3.1308025886979 2.1585529954685 9.8575274555548 63.258005896873
11862	42262169 906 511314 521472 2375 2400 26 3.9836714174925 13.859908288405 279.14654648501 3310.0683094588
11856	42263075 764 511313 521472 2374 2400 27 223.4 312.49355481265 6378.4352690154 1523850.2763604
11855	42263839 865 511313 521472 2374 2400 27 23.4 211.62814934917 2496.3190250573 361380.62081903
11884	42264704 710 515538 521472 2379 2400 22 0.973 8.1870279729553 71.048666670263 345.49994191839
11883	42265414 791 515538 521472 2379 2400 22 -2.8978148376879 2.1238592748623 6.9617131128047 56.097398696159
11878	42266205 805 515537 521472 2378 2400 23 3.2329011355269 13.843978459626 212.55810193804 2305.0093151978
11869	42267010 837 511708 521472 2377 2400 24 30.678923197769 212.45079363937 2583.6629777211 381672.32451574
11868	42267847 610 511708 521472 2377 2400 24 223.4 226.6 5423.8421536045 1225787.8740375
11886	42268457 728 515538 521472 2379 2400 22 0.973 7.7973433330121 80.428829726195 418.46784641151
11885	42269185 795 515538 521472 2379 2400 22 -4.2801314605287 2.131838890654 10.572788258389 55.560495503237
11879	42269980 804 515537 521472 2378 2400 23 3.1905517366076 13.88354370218 252.4830974752 3018.6222327709
11871	42270784 779 511708 521472 2377 2400 24 37.673610521914 223.4 3513.7267211354 632386.97568509
11870	42271563 670 511708 521472 2377 2400 24 359.95667653857 423.4 9964.1878172178 4143951.2568152
11888	42272233 769 515538 521472 2379 2400 22 1.7434510239305 8.1439383714984 66.090879339796 279.0319469365
11887	42273002 812 515538 521472 2379 2400 22 -0.081780837839471 2.0621541287936 9.6883367298762 18.802739171014
11880	42273814 805 515537 521472 2378 2400 23 4.1124124701033 13.885117121595 289.47386721441 3810.7523218286
11873	42274619 600 511708 521472 2377 2400 24 823.4 823.4 19761.6 16271701.44
11872	42275219 837 511708 521472 2377 2400 24 531.40734597426 815.63473532198 16485.98103613 11521934.373046
11893	42276056 692 518974 521472 2380 2400 21 0.973 8.1696597767069 74.913068590609 383.85919373498
11892	42276748 752 518974 521472 2380 2400 21 -3.2255480118046 2.3860658371448 8.0412670678841 60.954533838626
11889	42277500 769 515538 521472 2379 2400 22 3.8352065872858 13.889285728978 219.25090904767 2464.9781472081
11877	42278269 773 515537 521472 2378 2400 23 638.37927048298 823.4 17118.854260481 12848072.771935
11876	42279042 625 515537 521472 2378 2400 23 591.32367970674 623.4 14268.229002752 8852829.5498814
11898	42279667 678 518975 521472 2381 2400 20 0.973 7.8603537247875 71.713872816084 359.83580699589
11897	42280345 724 518975 521472 2381 2400 20 -4.0734449103544 2.2673066854035 8.8925312843121 57.344043332612
11894	42281069 733 518974 521472 2380 2400 21 2.8326655525465 13.879784810578 223.50527520531 2637.1814473561
11882	42281802 600 515538 521472 2379 2400 22 792.33312134305 823.4 18047.836567233 14806969.289447
11881	42282402 737 515538 521472 2379 2400 22 626.6 816.54883754363 15746.055648694 11379313.526617
11903	42283139 622 521013 521472 2382 2400 19 0.973 7.817350642844 57.013934993987 250.51096908553
11902	42283761 688 521013 521472 2382 2400 19 -3.1249885443716 2.0389375271462 2.0125379256605 49.247219750281
11899	42284449 689 518975 521472 2381 2400 20 3.3817783626818 13.840916411043 191.28483957801 2158.2221792961
11891	42285138 515 518974 521472 2380 2400 21 23.4 26.6 551.03805846092 14478.294818261
11890	42285653 733 518974 521472 2380 2400 21 438.34201705151 619.18097076954 11257.349772008 6125007.2068973
11908	42286386 629 521014 521472 2383 2400 18 1.8137258866888 8.6690542515693 58.304179828596 271.25389531448
11907	42287015 659 521014 521472 2383 2400 18 -0.06080042417161 2.0555187607091 9.9178370052016 19.557004691178
11904	42287674 663 521013 521472 2382 2400 19 3.9269401987876 13.87524916739 232.42230491879 3014.4186611612
11896	42288337 699 518975 521472 2381 2400 20 34.358121922246 261.80410718411 2698.9169086914 472563.55041487
11895	42289036 480 518975 521472 2381 2400 20 23.4 23.4 468 10951.2
11913	42289516 553 521332 521472 2384 2400 17 0.973 7.9204231642513 55.158205574727 270.44337832704
11912	42290069 617 521332 521472 2384 2400 17 -3.3507348373451 2.3373225155636 2.6200462888746 51.920965188186
11909	42290686 628 521014 521472 2383 2400 18 4.1599812156859 13.882218252374 185.29743249808 2155.0361566304
11901	42291314 475 521013 521472 2382 2400 19 223.4 223.4 4244.6 948243.64
11900	42291789 663 521013 521472 2382 2400 19 629.2387876425 811.62253686116 13696.162211391 9949621.7782721
11918	42292452 518 521333 521472 2385 2400 16 0.973 8.0621216311334 49.970551894 246.69156173807
11917	42292970 583 521333 521472 2385 2400 16 -3.2417821906976 2.1113366308575 -0.24789250463352 47.070450218706
11914	42293553 594 521332 521472 2384 2400 17 3.6277592627618 13.874998934795 181.21657128076 2166.3583662657
11906	42294147 450 521014 521472 2383 2400 18 826.6 826.6 14878.8 12298816.08
11905	42294597 629 521014 521472 2383 2400 18 34.382991969348 215.40569446685 2165.5703300418 330708.26952577
11921	42295226 485 521457 521472 2386 2400 15 0.973 8.7096440758505 47.853926228694 238.24430541812
11920	42295711 544 521457 521472 2386 2400 15 -3.2546471107065 2.0431727712206 0.62383119853378 44.365555765692
11919	42296255 560 521333 521472 2385 2400 16 3.9160468726137 13.873997553363 163.50018372679 1890.846748174
11911	42296815 425 521332 521472 2384 2400 17 426.6 426.6 7252.2 3093788.52
11910	42297240 592 521332 521472 2384 2400 17 438.37710649855 600.83362224001 8775.1031129767 4584062.2937789
11928	42297832 489 521458 521472 2387 2400 14 1.7076391898049 7.8871238633235 49.869693152375 237.84537370277
11927	42298321 510 521458 521472 2387 2400 14 -0.093176598607096 2.0457886983268 9.8755385306009 18.300510773929
11922	42298831 522 521457 521472 2386 2400 15 3.9121781882181 13.883673567933 176.89590283078 2242.9218848724
11916	42299353 559 521333 521472 2385 2400 16 439.88330666579 611.62944080969 8605.7858031287 4679471.3608165
11915	42299912 384 521333 521472 2385 2400 16 26.6 26.6 425.6 11320.96
11934	42300296 420 521460 521472 2389 2400 12 1.7665170116106 7.6975259997929 46.828262220441 237.91950727556
11933	42300716 433 521460 521472 2389 2400 12 -0.075601824503392 2.0786106917402 11.034301165574 20.658069130242
11931	42301149 455 521459 521472 2388 2400 13 2.8219785070525 13.869116763419 142.69311214148 1755.3143185888
11924	42301604 490 521458 521472 2387 2400 14 237.37701102825 374.45862608774 4100.2337019524 1230064.9512222
11923	42302094 350 521458 521472 2387 2400 14 623.4 623.4 8727.6 5440785.84
11936	42302444 418 521460 521472 2389 2400 12 1.8970858083412 7.8754555473936 45.845392014892 230.61675672267
11935	42302862 437 521460 521472 2389 2400 12 -0.036280369551386 1.9703029561113 9.915635388597 18.392223938414
11932	42303299 455 521459 521472 2388 2400 13 3.8763067390177 13.851634789985 148.69876282097 1850.0014586238
11926	42303754 350 521458 521472 2387 2400 14 826.6 826.6 11572.4 9565745.84
11925	42304104 489 521458 521472 2387 2400 14 438.34681516711 582.19120044718 6984.7535793849 3516388.8074855
11943	42304593 384 521461 521472 2390 2400 11 1.6790542027252 8.900547183554 43.844136156547 240.38618152451
11942	42304977 397 521461 521472 2390 2400 11 -0.10120316812303 2.1079060058598 9.8361823389161 19.357606035384
11937	42305374 418 521460 521472 2389 2400 12 3.9264948334272 13.863880340466 135.44708122857 1671.9154381044
11930	42305792 453 521459 521472 2388 2400 13 481.30198697431 611.6132951651 7244.6456601713 4061556.0318646
11929	42306245 325 521459 521472 2388 2400 13 826.6 826.6 10745.8 8882478.28
11949	42306570 314 521463 521472 2392 2400 9 2.0279194700358 7.938390779199 39.76050598597 213.50678210138
11948	42306884 323 521463 521472 2392 2400 9 0.0025365190510644 1.9462655802444 10.008471846852 17.898118381227
11946	42307207 349 521462 521472 2391 2400 10 3.8012970184871 13.809768865339 105.97150709591 1252.7897966632
11939	42307556 275 521461 521472 2390 2400 11 426.6 426.6 4692.6 2001863.16
11938	42307831 385 521461 521472 2390 2400 11 238.16735413689 339.23871792687 3068.6429609805 868529.9503332
11951	42308216 314 521463 521472 2392 2400 9 1.7549282056719 7.8749268789596 40.001674984232 216.15705395846
11950	42308530 323 521463 521472 2392 2400 9 -0.078635869510473 1.9415683180396 10.390108663786 18.88143229898
11947	42308853 350 521462 521472 2391 2400 10 3.3850661138266 13.853810647123 103.87142932542 1219.0793416795
11941	42309203 385 521461 521472 2390 2400 11 113.49060577151 212.19428291718 1902.6487070973 341045.7061989
11940	42309588 275 521461 521472 2390 2400 11 826.6 826.6 9092.6 7515943.16
11956	42309863 277 521464 521472 2393 2400 8 1.628112299263 8.5018577801476 38.002423001188 229.53687778595
11955	42310140 287 521464 521472 2393 2400 8 -0.11659202028764 2.0867390957684 9.779555074821 19.310999384825
11952	42310427 313 521463 521472 2392 2400 9 4.064726051293 13.88064477433 95.230699214599 1122.7451700087
11945	42310740 348 521462 521472 2391 2400 10 721.54063736513 811.65577237698 7752.2103511343 6018793.9269257
11944	42311088 250 521462 521472 2391 2400 10 426.6 426.6 4266 1819875.6
11969	42311338 175 521468 521472 2396 2400 5 4.2876296609154 8.3610244058182 32.225277601402 219.3186692016
11968	42311513 174 521468 521472 2396 2400 5 1.8155701465625 2.1312341411225 9.9677358247526 19.944385862499
11966	42311687 209 521467 521472 2395 2400 6 3.891971695831 13.859707520584 53.471204522439 546.17829534073
11958	42311896 244 521465 521472 2394 2400 7 238.15822237665 286.10006587619 1799.8737378389 464664.88339011
11957	42312140 175 521465 521472 2394 2400 7 423.4 423.4 2963.8 1254872.92
11965	42312315 210 521467 521472 2395 2400 6 2.3599578835645 7.5930948972939 33.848510309912 211.29208997171
11964	42312525 209 521467 521472 2395 2400 6 0.100209984018 2.0515207224945 9.6742230476576 18.43057576121
11961	42312734 244 521465 521472 2394 2400 7 4.1910716492173 13.865294696875 68.438787615633 753.62380205868
11954	42312978 278 521464 521472 2393 2400 8 34.387771175663 97.6459073223 477.06251856938 32087.658119332
11953	42313256 200 521464 521472 2393 2400 8 823.4 823.4 6587.2 5423900.48
11971	42313456 174 521468 521472 2396 2400 5 3.869608325666 8.3963706983437 31.573054181529 211.51648922738
11970	42313630 174 521468 521472 2396 2400 5 1.7461601551576 2.0764460066054 9.6742353643322 18.785389005176
11967	42313804 208 521467 521472 2395 2400 6 4.0977505381234 13.771985902456 53.395532190418 542.17409660212
11960	42314012 175 521465 521472 2394 2400 7 626.6 626.6 4386.2 2748392.92
11959	42314187 245 521465 521472 2394 2400 7 38.357771992218 86.416431984721 402.52640417978 25018.324885599
11974	42314432 140 521469 521472 2397 2400 4 3.8877594191449 7.4140900522961 22.085171364593 128.25572843066
11973	42314572 139 521469 521472 2397 2400 4 1.7378505083197 2.063321217841 7.7502730842098 15.088886227887
11972	42314711 175 521468 521472 2396 2400 5 3.5884605578817 11.338733642091 37.23182368417 314.51820370055
11963	42314886 150 521467 521472 2395 2400 6 426.6 426.6 2559.6 1091925.36
11962	42315036 210 521467 521472 2395 2400 6 238.36727949588 271.40336772464 1510.2975227089 380962.89801978
11986	42315246 35 521472 521472 2400 2400 1 2.7292158095484 2.7292158095484 2.7292158095484 7.4486189350889
11978	42315281 70 521471 521472 2399 2400 2 237.37550111132 239.12980242878 476.5053035401 113530.19093748
11977	42315351 48 521471 521472 2399 2400 2 23.4 23.4 46.8 1095.12
11985	42315399 35 521472 521472 2400 2400 1 4.4522356354955 4.4522356354955 4.4522356354955 19.822402153976
11984	42315434 35 521472 521472 2400 2400 1 2.0447422215342 2.0447422215342 2.0447422215342 4.1809707525248
11981	42315469 70 521471 521472 2399 2400 2 4.0933931706104 6.1381353921446 10.231528562755 54.432573741498
11976	42315539 72 521470 521472 2398 2400 3 26.6 26.6 79.8 2122.68
11975	42315611 105 521470 521472 2398 2400 3 238.39050372324 246.82510296092 726.83785694102 176133.97553628
11987	42315716 35 521472 521472 2400 2400 1 3.9436274413346 3.9436274413346 3.9436274413346 15.552197396047
11980	42315751 70 521471 521472 2399 2400 2 208.75568123559 211.82117899351 420.57686022909 88447.146318333
11979	42315821 50 521471 521472 2399 2400 2 826.6 826.6 1653.2 1366535.12
11983	42315871 25 521472 521472 2400 2400 1 626.6 626.6 626.6 392627.56
11982	42315896 35 521472 521472 2400 2400 1 38.339819110369 38.339819110369 38.339819110369 1469.9417294158

