file 38539430 1609465653                                        
version 2
run Default-0-20201231-21:08:42-4548
attr configname Default
attr datetime 20201231-21:08:42
attr experiment Default
attr inifile omnetpp.ini
attr iterationvars ""
attr iterationvarsf ""
attr measurement ""
attr network Sim2Scenario
attr processid 4548
attr repetition 0
attr replication #0
attr resultdir results
attr runnumber 0
attr seedset 0
param *.playgroundSizeX 1000m
param *.playgroundSizeY 1000m
param *.playgroundSizeZ 50m
param *.annotations.draw true
param *.manager.updateInterval 1s
param *.manager.host "\"localhost\""
param *.manager.port 9999
param *.manager.autoShutdown true
param *.manager.launchConfig "xmldoc(\"sim2.launchd.xml\")"
param *.connectionManager.sendDirect true
param *.connectionManager.maxInterfDist 300m
param *.connectionManager.drawMaxIntfDist false
param *.**.nic.mac1609_4.useServiceChannel false
param *.**.nic.mac1609_4.txPower 20mW
param *.**.nic.mac1609_4.bitrate 6Mbps
param *.**.nic.phy80211p.minPowerLevel -110dBm
param *.**.nic.phy80211p.useNoiseFloor true
param *.**.nic.phy80211p.noiseFloor -98dBm
param *.**.nic.phy80211p.decider "xmldoc(\"config.xml\")"
param *.**.nic.phy80211p.analogueModels "xmldoc(\"config.xml\")"
param *.**.nic.phy80211p.usePropagationDelay true
param *.**.nic.phy80211p.antenna "xmldoc(\"antenna.xml\", \"/root/Antenna[@id='monopole']\")"
param *.node[*].nic.phy80211p.antennaOffsetY "0 m"
param *.node[*].nic.phy80211p.antennaOffsetZ "1.895 m"
param *.node[*].applType "\"UninfectedDemo11p\""
param *.node[*].appl.headerLength "80 bit"
param *.node[*].appl.sendBeacons false
param *.node[*].appl.dataOnSch false
param *.node[*].appl.beaconInterval 1s
param *.node[*].veinsmobility.x 0
param *.node[*].veinsmobility.y 0
param *.node[*].veinsmobility.z 0
param *.node[*].veinsmobility.setHostSpeed false
param *.node[*0].veinsmobility.accidentCount 1
param *.node[*0].veinsmobility.accidentStart 73s
param *.node[*0].veinsmobility.accidentDuration 50s

vector 0 Sim2Scenario.node[0].veinsmobility posx ETV
vector 1 Sim2Scenario.node[0].veinsmobility posy ETV
vector 2 Sim2Scenario.node[1].veinsmobility posx ETV
vector 3 Sim2Scenario.node[1].veinsmobility posy ETV
vector 4 Sim2Scenario.node[0].veinsmobility speed ETV
vector 5 Sim2Scenario.node[2].veinsmobility posx ETV
vector 6 Sim2Scenario.node[2].veinsmobility posy ETV
vector 7 Sim2Scenario.node[0].veinsmobility acceleration ETV
vector 8 Sim2Scenario.node[0].veinsmobility co2emission ETV
vector 9 Sim2Scenario.node[1].veinsmobility speed ETV
vector 10 Sim2Scenario.node[3].veinsmobility posx ETV
vector 11 Sim2Scenario.node[3].veinsmobility posy ETV
vector 12 Sim2Scenario.node[1].veinsmobility acceleration ETV
vector 13 Sim2Scenario.node[1].veinsmobility co2emission ETV
vector 14 Sim2Scenario.node[2].veinsmobility speed ETV
0	2841 92 2 5 1 4 4 238.33130028169 252.95160311503 978.70915044919 239590.23422901
1	2933 48 2 5 1 4 4 26.6 26.6 106.4 2830.24
2	2981 68 3 5 2 4 3 203.53042320467 211.61882214952 623.70910438359 129704.37385618
3	3049 39 3 5 2 4 3 823.4 823.4 2470.2 2033962.68
4	3088 68 3 5 2 4 3 3.722822103166 7.6910999753055 17.068641671376 104.98827691634
5	3156 26 4 5 3 4 2 423.4 423.4 846.8 358535.12
6	3182 45 4 5 3 4 2 438.34775942317 441.4088176292 879.75657705237 386990.50247212
7	3227 46 4 5 3 4 2 1.9318974897382 2.0363803824014 3.9682778721396 7.879072972686
8	3273 46 4 5 3 4 2 4.0322527122872 5.2975898300737 9.3298425423608 44.323519943447
9	3319 46 4 5 3 4 2 3.8605596513442 5.9418282538514 9.8023879051956 50.209243819854
10	3365 14 5 5 4 4 1 226.6 226.6 226.6 51347.56
11	3379 24 5 5 4 4 1 611.63399887184 611.63399887184 611.63399887184 374096.14857596
12	3403 24 5 5 4 4 1 2.0812686025072 2.0812686025072 2.0812686025072 4.3316789957822
13	3427 24 5 5 4 4 1 4.3963491482435 4.3963491482435 4.3963491482435 19.327885833262
14	3451 24 5 5 4 4 1 3.9817542820289 3.9817542820289 3.9817542820289 15.854367162456
vector 15 Sim2Scenario.node[4].veinsmobility posx ETV
vector 16 Sim2Scenario.node[4].veinsmobility posy ETV
vector 17 Sim2Scenario.node[2].veinsmobility acceleration ETV
vector 18 Sim2Scenario.node[2].veinsmobility co2emission ETV
vector 19 Sim2Scenario.node[3].veinsmobility speed ETV
vector 20 Sim2Scenario.node[5].veinsmobility posx ETV
vector 21 Sim2Scenario.node[5].veinsmobility posy ETV
vector 22 Sim2Scenario.node[3].veinsmobility acceleration ETV
vector 23 Sim2Scenario.node[3].veinsmobility co2emission ETV
vector 24 Sim2Scenario.node[4].veinsmobility speed ETV
vector 25 Sim2Scenario.node[6].veinsmobility posx ETV
vector 26 Sim2Scenario.node[6].veinsmobility posy ETV
vector 27 Sim2Scenario.node[4].veinsmobility acceleration ETV
vector 28 Sim2Scenario.node[4].veinsmobility co2emission ETV
vector 29 Sim2Scenario.node[5].veinsmobility speed ETV
vector 30 Sim2Scenario.node[7].veinsmobility posx ETV
vector 31 Sim2Scenario.node[7].veinsmobility posy ETV
vector 32 Sim2Scenario.node[5].veinsmobility acceleration ETV
vector 33 Sim2Scenario.node[5].veinsmobility co2emission ETV
vector 34 Sim2Scenario.node[6].veinsmobility speed ETV
vector 35 Sim2Scenario.node[8].veinsmobility posx ETV
vector 36 Sim2Scenario.node[8].veinsmobility posy ETV
vector 37 Sim2Scenario.node[6].veinsmobility acceleration ETV
vector 38 Sim2Scenario.node[6].veinsmobility co2emission ETV
vector 39 Sim2Scenario.node[7].veinsmobility speed ETV
vector 40 Sim2Scenario.node[9].veinsmobility posx ETV
vector 41 Sim2Scenario.node[9].veinsmobility posy ETV
vector 42 Sim2Scenario.node[7].veinsmobility acceleration ETV
vector 43 Sim2Scenario.node[7].veinsmobility co2emission ETV
vector 44 Sim2Scenario.node[8].veinsmobility speed ETV
vector 45 Sim2Scenario.node[10].veinsmobility posx ETV
vector 46 Sim2Scenario.node[10].veinsmobility posy ETV
vector 47 Sim2Scenario.node[8].veinsmobility acceleration ETV
vector 48 Sim2Scenario.node[8].veinsmobility co2emission ETV
vector 49 Sim2Scenario.node[9].veinsmobility speed ETV
vector 50 Sim2Scenario.node[11].veinsmobility posx ETV
vector 51 Sim2Scenario.node[11].veinsmobility posy ETV
vector 52 Sim2Scenario.node[9].veinsmobility acceleration ETV
vector 53 Sim2Scenario.node[9].veinsmobility co2emission ETV
vector 54 Sim2Scenario.node[10].veinsmobility speed ETV
vector 55 Sim2Scenario.node[12].veinsmobility posx ETV
vector 56 Sim2Scenario.node[12].veinsmobility posy ETV
vector 57 Sim2Scenario.node[10].veinsmobility acceleration ETV
vector 58 Sim2Scenario.node[10].veinsmobility co2emission ETV
vector 59 Sim2Scenario.node[11].veinsmobility speed ETV
vector 60 Sim2Scenario.node[13].veinsmobility posx ETV
vector 61 Sim2Scenario.node[13].veinsmobility posy ETV
vector 62 Sim2Scenario.node[11].veinsmobility acceleration ETV
vector 63 Sim2Scenario.node[11].veinsmobility co2emission ETV
vector 64 Sim2Scenario.node[12].veinsmobility speed ETV
vector 65 Sim2Scenario.node[14].veinsmobility posx ETV
vector 66 Sim2Scenario.node[14].veinsmobility posy ETV
vector 67 Sim2Scenario.node[12].veinsmobility acceleration ETV
vector 68 Sim2Scenario.node[12].veinsmobility co2emission ETV
vector 69 Sim2Scenario.node[13].veinsmobility speed ETV
vector 70 Sim2Scenario.node[15].veinsmobility posx ETV
vector 71 Sim2Scenario.node[15].veinsmobility posy ETV
vector 72 Sim2Scenario.node[13].veinsmobility acceleration ETV
vector 73 Sim2Scenario.node[13].veinsmobility co2emission ETV
vector 74 Sim2Scenario.node[14].veinsmobility speed ETV
vector 75 Sim2Scenario.node[16].veinsmobility posx ETV
vector 76 Sim2Scenario.node[16].veinsmobility posy ETV
vector 77 Sim2Scenario.node[14].veinsmobility acceleration ETV
vector 78 Sim2Scenario.node[14].veinsmobility co2emission ETV
vector 79 Sim2Scenario.node[15].veinsmobility speed ETV
vector 80 Sim2Scenario.node[17].veinsmobility posx ETV
vector 81 Sim2Scenario.node[17].veinsmobility posy ETV
vector 82 Sim2Scenario.node[15].veinsmobility acceleration ETV
vector 83 Sim2Scenario.node[15].veinsmobility co2emission ETV
vector 84 Sim2Scenario.node[16].veinsmobility speed ETV
vector 85 Sim2Scenario.node[18].veinsmobility posx ETV
vector 86 Sim2Scenario.node[18].veinsmobility posy ETV
vector 87 Sim2Scenario.node[16].veinsmobility acceleration ETV
vector 88 Sim2Scenario.node[16].veinsmobility co2emission ETV
vector 89 Sim2Scenario.node[17].veinsmobility speed ETV
vector 90 Sim2Scenario.node[19].veinsmobility posx ETV
vector 91 Sim2Scenario.node[19].veinsmobility posy ETV
vector 92 Sim2Scenario.node[17].veinsmobility acceleration ETV
vector 93 Sim2Scenario.node[17].veinsmobility co2emission ETV
vector 94 Sim2Scenario.node[18].veinsmobility speed ETV
vector 95 Sim2Scenario.node[20].veinsmobility posx ETV
vector 96 Sim2Scenario.node[20].veinsmobility posy ETV
vector 97 Sim2Scenario.node[18].veinsmobility acceleration ETV
vector 98 Sim2Scenario.node[18].veinsmobility co2emission ETV
vector 99 Sim2Scenario.node[19].veinsmobility speed ETV
vector 100 Sim2Scenario.node[21].veinsmobility posx ETV
vector 101 Sim2Scenario.node[21].veinsmobility posy ETV
vector 102 Sim2Scenario.node[19].veinsmobility acceleration ETV
vector 103 Sim2Scenario.node[19].veinsmobility co2emission ETV
vector 104 Sim2Scenario.node[20].veinsmobility speed ETV
vector 105 Sim2Scenario.node[22].veinsmobility posx ETV
vector 106 Sim2Scenario.node[22].veinsmobility posy ETV
vector 107 Sim2Scenario.node[20].veinsmobility acceleration ETV
vector 108 Sim2Scenario.node[20].veinsmobility co2emission ETV
vector 109 Sim2Scenario.node[21].veinsmobility speed ETV
vector 110 Sim2Scenario.node[23].veinsmobility posx ETV
vector 111 Sim2Scenario.node[23].veinsmobility posy ETV
vector 112 Sim2Scenario.node[21].veinsmobility acceleration ETV
vector 113 Sim2Scenario.node[21].veinsmobility co2emission ETV
vector 114 Sim2Scenario.node[22].veinsmobility speed ETV
vector 115 Sim2Scenario.node[24].veinsmobility posx ETV
vector 116 Sim2Scenario.node[24].veinsmobility posy ETV
vector 117 Sim2Scenario.node[22].veinsmobility acceleration ETV
vector 118 Sim2Scenario.node[22].veinsmobility co2emission ETV
vector 119 Sim2Scenario.node[23].veinsmobility speed ETV
vector 120 Sim2Scenario.node[25].veinsmobility posx ETV
vector 121 Sim2Scenario.node[25].veinsmobility posy ETV
vector 122 Sim2Scenario.node[23].veinsmobility acceleration ETV
vector 123 Sim2Scenario.node[23].veinsmobility co2emission ETV
vector 124 Sim2Scenario.node[24].veinsmobility speed ETV
vector 125 Sim2Scenario.node[26].veinsmobility posx ETV
vector 126 Sim2Scenario.node[26].veinsmobility posy ETV
vector 127 Sim2Scenario.node[24].veinsmobility acceleration ETV
vector 128 Sim2Scenario.node[24].veinsmobility co2emission ETV
vector 129 Sim2Scenario.node[25].veinsmobility speed ETV
vector 130 Sim2Scenario.node[27].veinsmobility posx ETV
vector 131 Sim2Scenario.node[27].veinsmobility posy ETV
vector 132 Sim2Scenario.node[25].veinsmobility acceleration ETV
vector 133 Sim2Scenario.node[25].veinsmobility co2emission ETV
vector 134 Sim2Scenario.node[26].veinsmobility speed ETV
vector 135 Sim2Scenario.node[28].veinsmobility posx ETV
vector 136 Sim2Scenario.node[28].veinsmobility posy ETV
vector 137 Sim2Scenario.node[26].veinsmobility acceleration ETV
vector 138 Sim2Scenario.node[26].veinsmobility co2emission ETV
vector 139 Sim2Scenario.node[27].veinsmobility speed ETV
vector 140 Sim2Scenario.node[29].veinsmobility posx ETV
vector 141 Sim2Scenario.node[29].veinsmobility posy ETV
vector 142 Sim2Scenario.node[27].veinsmobility acceleration ETV
vector 143 Sim2Scenario.node[27].veinsmobility co2emission ETV
vector 144 Sim2Scenario.node[28].veinsmobility speed ETV
vector 145 Sim2Scenario.node[30].veinsmobility posx ETV
vector 146 Sim2Scenario.node[30].veinsmobility posy ETV
vector 147 Sim2Scenario.node[28].veinsmobility acceleration ETV
vector 148 Sim2Scenario.node[28].veinsmobility co2emission ETV
vector 149 Sim2Scenario.node[29].veinsmobility speed ETV
vector 150 Sim2Scenario.node[31].veinsmobility posx ETV
vector 151 Sim2Scenario.node[31].veinsmobility posy ETV
vector 152 Sim2Scenario.node[29].veinsmobility acceleration ETV
vector 153 Sim2Scenario.node[29].veinsmobility co2emission ETV
vector 154 Sim2Scenario.node[30].veinsmobility speed ETV
vector 155 Sim2Scenario.node[32].veinsmobility posx ETV
vector 156 Sim2Scenario.node[32].veinsmobility posy ETV
vector 157 Sim2Scenario.node[30].veinsmobility acceleration ETV
vector 158 Sim2Scenario.node[30].veinsmobility co2emission ETV
vector 159 Sim2Scenario.node[31].veinsmobility speed ETV
vector 160 Sim2Scenario.node[33].veinsmobility posx ETV
vector 161 Sim2Scenario.node[33].veinsmobility posy ETV
vector 162 Sim2Scenario.node[31].veinsmobility acceleration ETV
vector 163 Sim2Scenario.node[31].veinsmobility co2emission ETV
vector 164 Sim2Scenario.node[32].veinsmobility speed ETV
vector 165 Sim2Scenario.node[34].veinsmobility posx ETV
vector 166 Sim2Scenario.node[34].veinsmobility posy ETV
vector 167 Sim2Scenario.node[32].veinsmobility acceleration ETV
vector 168 Sim2Scenario.node[32].veinsmobility co2emission ETV
vector 169 Sim2Scenario.node[33].veinsmobility speed ETV
vector 170 Sim2Scenario.node[35].veinsmobility posx ETV
vector 171 Sim2Scenario.node[35].veinsmobility posy ETV
vector 172 Sim2Scenario.node[33].veinsmobility acceleration ETV
vector 173 Sim2Scenario.node[33].veinsmobility co2emission ETV
vector 174 Sim2Scenario.node[34].veinsmobility speed ETV
vector 175 Sim2Scenario.node[36].veinsmobility posx ETV
vector 176 Sim2Scenario.node[36].veinsmobility posy ETV
vector 177 Sim2Scenario.node[34].veinsmobility acceleration ETV
vector 178 Sim2Scenario.node[34].veinsmobility co2emission ETV
vector 179 Sim2Scenario.node[35].veinsmobility speed ETV
vector 180 Sim2Scenario.node[37].veinsmobility posx ETV
vector 181 Sim2Scenario.node[37].veinsmobility posy ETV
vector 182 Sim2Scenario.node[35].veinsmobility acceleration ETV
vector 183 Sim2Scenario.node[35].veinsmobility co2emission ETV
vector 184 Sim2Scenario.node[36].veinsmobility speed ETV
vector 185 Sim2Scenario.node[38].veinsmobility posx ETV
vector 186 Sim2Scenario.node[38].veinsmobility posy ETV
vector 187 Sim2Scenario.node[36].veinsmobility acceleration ETV
vector 188 Sim2Scenario.node[36].veinsmobility co2emission ETV
vector 189 Sim2Scenario.node[37].veinsmobility speed ETV
123	13890 378 27 40 26 39 14 1.7046288362581 7.8248594772988 50.054110153398 244.29796694799
122	14268 397 27 40 26 39 14 -0.09373022872256 2.0943918044725 9.8061608840758 18.728260891895
119	14665 402 26 40 25 39 15 4.0277950379694 13.878134806112 178.11467811615 2267.4349855542
111	15067 272 25 40 24 39 16 823.4 823.4 13174.4 10847800.96
110	15339 432 25 40 24 39 16 438.71025789349 611.61766712898 8591.7896323766 4665052.4677468
vector 190 Sim2Scenario.node[39].veinsmobility posx ETV
vector 191 Sim2Scenario.node[39].veinsmobility posy ETV
vector 192 Sim2Scenario.node[37].veinsmobility acceleration ETV
vector 193 Sim2Scenario.node[37].veinsmobility co2emission ETV
vector 194 Sim2Scenario.node[38].veinsmobility speed ETV
vector 195 Sim2Scenario.node[40].veinsmobility posx ETV
vector 196 Sim2Scenario.node[40].veinsmobility posy ETV
vector 197 Sim2Scenario.node[38].veinsmobility acceleration ETV
vector 198 Sim2Scenario.node[38].veinsmobility co2emission ETV
vector 199 Sim2Scenario.node[39].veinsmobility speed ETV
vector 200 Sim2Scenario.node[39].veinsmobility acceleration ETV
vector 201 Sim2Scenario.node[39].veinsmobility co2emission ETV
vector 202 Sim2Scenario.node[40].veinsmobility speed ETV
vector 203 Sim2Scenario.node[41].veinsmobility posx ETV
vector 204 Sim2Scenario.node[41].veinsmobility posy ETV
vector 205 Sim2Scenario.node[42].veinsmobility posx ETV
vector 206 Sim2Scenario.node[42].veinsmobility posy ETV
vector 207 Sim2Scenario.node[40].veinsmobility acceleration ETV
vector 208 Sim2Scenario.node[40].veinsmobility co2emission ETV
vector 209 Sim2Scenario.node[43].veinsmobility posx ETV
vector 210 Sim2Scenario.node[43].veinsmobility posy ETV
vector 211 Sim2Scenario.node[41].veinsmobility speed ETV
vector 212 Sim2Scenario.node[42].veinsmobility speed ETV
vector 213 Sim2Scenario.node[44].veinsmobility posx ETV
vector 214 Sim2Scenario.node[44].veinsmobility posy ETV
vector 215 Sim2Scenario.node[41].veinsmobility acceleration ETV
vector 216 Sim2Scenario.node[41].veinsmobility co2emission ETV
vector 217 Sim2Scenario.node[42].veinsmobility acceleration ETV
vector 218 Sim2Scenario.node[42].veinsmobility co2emission ETV
vector 219 Sim2Scenario.node[43].veinsmobility speed ETV
vector 220 Sim2Scenario.node[45].veinsmobility posx ETV
vector 221 Sim2Scenario.node[45].veinsmobility posy ETV
vector 222 Sim2Scenario.node[43].veinsmobility acceleration ETV
vector 223 Sim2Scenario.node[43].veinsmobility co2emission ETV
vector 224 Sim2Scenario.node[44].veinsmobility speed ETV
vector 225 Sim2Scenario.node[46].veinsmobility posx ETV
vector 226 Sim2Scenario.node[46].veinsmobility posy ETV
vector 227 Sim2Scenario.node[44].veinsmobility acceleration ETV
vector 228 Sim2Scenario.node[44].veinsmobility co2emission ETV
vector 229 Sim2Scenario.node[45].veinsmobility speed ETV
vector 230 Sim2Scenario.node[47].veinsmobility posx ETV
vector 231 Sim2Scenario.node[47].veinsmobility posy ETV
vector 232 Sim2Scenario.node[45].veinsmobility acceleration ETV
vector 233 Sim2Scenario.node[45].veinsmobility co2emission ETV
vector 234 Sim2Scenario.node[46].veinsmobility speed ETV
vector 235 Sim2Scenario.node[48].veinsmobility posx ETV
vector 236 Sim2Scenario.node[48].veinsmobility posy ETV
vector 237 Sim2Scenario.node[46].veinsmobility acceleration ETV
vector 238 Sim2Scenario.node[46].veinsmobility co2emission ETV
vector 239 Sim2Scenario.node[47].veinsmobility speed ETV
vector 240 Sim2Scenario.node[49].veinsmobility posx ETV
vector 241 Sim2Scenario.node[49].veinsmobility posy ETV
vector 242 Sim2Scenario.node[47].veinsmobility acceleration ETV
vector 243 Sim2Scenario.node[47].veinsmobility co2emission ETV
vector 244 Sim2Scenario.node[48].veinsmobility speed ETV
vector 245 Sim2Scenario.node[48].veinsmobility acceleration ETV
vector 246 Sim2Scenario.node[48].veinsmobility co2emission ETV
vector 247 Sim2Scenario.node[49].veinsmobility speed ETV
23	19269 1145 7 52 6 51 46 0.973 8.0209828473551 131.15079257426 543.69823416299
22	20414 1267 7 52 6 51 46 -3.3188026039673 2.2626646912354 9.7017864311674 63.640971278701
19	21681 1206 6 52 5 51 47 4.1837425248161 13.888416356484 576.10937176731 7460.6792997137
11	22887 1064 6 52 5 51 47 223.4 608.44140993568 16706.41314683 6804646.1901862
10	23951 901 6 52 5 51 47 40.963665082662 226.6 9295.6836365085 1971586.5103993
vector 248 Sim2Scenario.node[50].veinsmobility posx ETV
vector 249 Sim2Scenario.node[50].veinsmobility posy ETV
vector 250 Sim2Scenario.node[51].veinsmobility posx ETV
vector 251 Sim2Scenario.node[51].veinsmobility posy ETV
vector 252 Sim2Scenario.node[49].veinsmobility acceleration ETV
vector 253 Sim2Scenario.node[49].veinsmobility co2emission ETV
vector 254 Sim2Scenario.node[52].veinsmobility posx ETV
vector 255 Sim2Scenario.node[52].veinsmobility posy ETV
vector 256 Sim2Scenario.node[50].veinsmobility speed ETV
vector 257 Sim2Scenario.node[51].veinsmobility speed ETV
vector 258 Sim2Scenario.node[50].veinsmobility acceleration ETV
vector 259 Sim2Scenario.node[50].veinsmobility co2emission ETV
vector 260 Sim2Scenario.node[51].veinsmobility acceleration ETV
vector 261 Sim2Scenario.node[51].veinsmobility co2emission ETV
vector 262 Sim2Scenario.node[52].veinsmobility speed ETV
vector 263 Sim2Scenario.node[53].veinsmobility posx ETV
vector 264 Sim2Scenario.node[53].veinsmobility posy ETV
vector 265 Sim2Scenario.node[52].veinsmobility acceleration ETV
vector 266 Sim2Scenario.node[52].veinsmobility co2emission ETV
vector 267 Sim2Scenario.node[54].veinsmobility posx ETV
vector 268 Sim2Scenario.node[54].veinsmobility posy ETV
vector 269 Sim2Scenario.node[53].veinsmobility speed ETV
vector 270 Sim2Scenario.node[55].veinsmobility posx ETV
vector 271 Sim2Scenario.node[55].veinsmobility posy ETV
vector 272 Sim2Scenario.node[53].veinsmobility acceleration ETV
vector 273 Sim2Scenario.node[53].veinsmobility co2emission ETV
vector 274 Sim2Scenario.node[54].veinsmobility speed ETV
vector 275 Sim2Scenario.node[56].veinsmobility posx ETV
vector 276 Sim2Scenario.node[56].veinsmobility posy ETV
vector 277 Sim2Scenario.node[54].veinsmobility acceleration ETV
vector 278 Sim2Scenario.node[54].veinsmobility co2emission ETV
vector 279 Sim2Scenario.node[55].veinsmobility speed ETV
vector 280 Sim2Scenario.node[57].veinsmobility posx ETV
vector 281 Sim2Scenario.node[57].veinsmobility posy ETV
vector 282 Sim2Scenario.node[55].veinsmobility acceleration ETV
vector 283 Sim2Scenario.node[55].veinsmobility co2emission ETV
vector 284 Sim2Scenario.node[56].veinsmobility speed ETV
vector 285 Sim2Scenario.node[58].veinsmobility posx ETV
vector 286 Sim2Scenario.node[58].veinsmobility posy ETV
vector 287 Sim2Scenario.node[59].veinsmobility posx ETV
vector 288 Sim2Scenario.node[59].veinsmobility posy ETV
vector 289 Sim2Scenario.node[56].veinsmobility acceleration ETV
vector 290 Sim2Scenario.node[56].veinsmobility co2emission ETV
vector 291 Sim2Scenario.node[57].veinsmobility speed ETV
vector 292 Sim2Scenario.node[60].veinsmobility posx ETV
vector 293 Sim2Scenario.node[60].veinsmobility posy ETV
vector 294 Sim2Scenario.node[57].veinsmobility acceleration ETV
vector 295 Sim2Scenario.node[57].veinsmobility co2emission ETV
vector 296 Sim2Scenario.node[58].veinsmobility speed ETV
vector 297 Sim2Scenario.node[59].veinsmobility speed ETV
53	27847 1227 13 62 12 61 50 0.973 8.3916367649199 156.80464516604 731.1820925608
52	29074 1370 13 62 12 61 50 -3.355442694288 2.1179010292981 9.8259926062364 109.83213574634
49	30444 1321 12 62 11 61 51 3.5621496864848 13.887274319187 575.93308594475 7083.3423497391
41	31765 1189 11 62 10 61 52 438.35435812088 815.01378516943 32135.018901886 20292568.155547
40	32954 1028 11 62 10 61 52 423.4 623.4 26998.507549721 14431455.054212
vector 298 Sim2Scenario.node[61].veinsmobility posx ETV
vector 299 Sim2Scenario.node[61].veinsmobility posy ETV
vector 300 Sim2Scenario.node[58].veinsmobility acceleration ETV
vector 301 Sim2Scenario.node[58].veinsmobility co2emission ETV
vector 302 Sim2Scenario.node[59].veinsmobility acceleration ETV
vector 303 Sim2Scenario.node[59].veinsmobility co2emission ETV
vector 304 Sim2Scenario.node[60].veinsmobility speed ETV
73	34412 1179 17 63 16 62 47 0.973 8.4289382751256 133.86330881384 548.07168403824
72	35591 1302 17 63 16 62 47 -4.4378103577699 2.0562678857078 10.054449167529 69.087808111377
69	36893 1241 16 63 15 62 48 3.8004325452788 13.889763465817 579.17813187746 7430.2116121919
61	38134 1092 15 63 14 62 49 26.6 411.64691181547 7869.157048183 2206013.0602144
60	39226 911 15 63 14 62 49 26.6 215.99665397546 2718.2047194401 292549.42638738
8	40137 1406 6 63 5 62 58 0.973 8.4055474696849 151.95000506619 567.89748792436
7	41543 1561 6 63 5 62 58 -4.4742306211542 2.1980462150532 6.0904903688646 64.828689260666
4	43104 1431 6 63 5 62 58 3.8541858744947 13.882528818171 751.26839564915 10020.282224104
1	44535 976 6 63 5 62 58 26.6 205.8570316518 2819.4687523518 264812.30071181
0	45511 1285 6 63 5 62 58 261.74815797592 823.4 35905.106135813 24322526.215737
vector 305 Sim2Scenario.node[60].veinsmobility acceleration ETV
vector 306 Sim2Scenario.node[60].veinsmobility co2emission ETV
vector 307 Sim2Scenario.node[61].veinsmobility speed ETV
vector 308 Sim2Scenario.node[62].veinsmobility posx ETV
vector 309 Sim2Scenario.node[62].veinsmobility posy ETV
vector 310 Sim2Scenario.node[61].veinsmobility acceleration ETV
vector 311 Sim2Scenario.node[61].veinsmobility co2emission ETV
88	47226 1150 20 65 19 64 46 0.973 8.2358515529932 131.90328068092 556.12009348721
87	48376 1280 20 65 19 64 46 -3.3360943807475 2.2415648450074 9.7492883084873 64.921569726473
84	49656 1216 19 65 18 64 47 4.1265234313304 13.882503290304 574.54128091163 7430.1325672934
76	50872 894 18 65 17 64 48 23.4 207.45692349137 2455.968231674 256622.41941575
75	51766 1103 18 65 17 64 48 223.4 611.61862955957 17344.568134053 7199869.1546769
vector 312 Sim2Scenario.node[63].veinsmobility posx ETV
vector 313 Sim2Scenario.node[63].veinsmobility posy ETV
vector 314 Sim2Scenario.node[64].veinsmobility posx ETV
vector 315 Sim2Scenario.node[64].veinsmobility posy ETV
vector 316 Sim2Scenario.node[62].veinsmobility speed ETV
vector 317 Sim2Scenario.node[65].veinsmobility posx ETV
vector 318 Sim2Scenario.node[65].veinsmobility posy ETV
vector 319 Sim2Scenario.node[62].veinsmobility acceleration ETV
vector 320 Sim2Scenario.node[62].veinsmobility co2emission ETV
vector 321 Sim2Scenario.node[63].veinsmobility speed ETV
vector 322 Sim2Scenario.node[64].veinsmobility speed ETV
vector 323 Sim2Scenario.node[66].veinsmobility posx ETV
vector 324 Sim2Scenario.node[66].veinsmobility posy ETV
vector 325 Sim2Scenario.node[63].veinsmobility acceleration ETV
vector 326 Sim2Scenario.node[63].veinsmobility co2emission ETV
vector 327 Sim2Scenario.node[64].veinsmobility acceleration ETV
vector 328 Sim2Scenario.node[64].veinsmobility co2emission ETV
vector 329 Sim2Scenario.node[65].veinsmobility speed ETV
vector 330 Sim2Scenario.node[67].veinsmobility posx ETV
vector 331 Sim2Scenario.node[67].veinsmobility posy ETV
vector 332 Sim2Scenario.node[65].veinsmobility acceleration ETV
vector 333 Sim2Scenario.node[65].veinsmobility co2emission ETV
vector 334 Sim2Scenario.node[66].veinsmobility speed ETV
vector 335 Sim2Scenario.node[68].veinsmobility posx ETV
vector 336 Sim2Scenario.node[68].veinsmobility posy ETV
vector 337 Sim2Scenario.node[66].veinsmobility acceleration ETV
vector 338 Sim2Scenario.node[66].veinsmobility co2emission ETV
vector 339 Sim2Scenario.node[67].veinsmobility speed ETV
vector 340 Sim2Scenario.node[69].veinsmobility posx ETV
vector 341 Sim2Scenario.node[69].veinsmobility posy ETV
vector 342 Sim2Scenario.node[67].veinsmobility acceleration ETV
vector 343 Sim2Scenario.node[67].veinsmobility co2emission ETV
vector 344 Sim2Scenario.node[68].veinsmobility speed ETV
18	54847 1605 6 71 5 70 66 0.973 8.2332987577029 205.89275172096 956.14491373576
17	56452 1803 6 71 5 70 66 -4.4851412721979 2.5619180149538 9.7829082326213 154.91951038343
14	58255 1703 6 71 5 70 66 3.3176953228269 13.884849982031 760.04637977077 9413.3590347106
6	59958 1295 6 71 5 70 66 441.47775187862 623.4 38423.23990239 22599738.857619
5	61253 1345 6 71 5 70 66 26.6 423.4 14707.266922548 4968796.4643098
vector 345 Sim2Scenario.node[68].veinsmobility acceleration ETV
vector 346 Sim2Scenario.node[68].veinsmobility co2emission ETV
vector 347 Sim2Scenario.node[69].veinsmobility speed ETV
vector 348 Sim2Scenario.node[70].veinsmobility posx ETV
vector 349 Sim2Scenario.node[70].veinsmobility posy ETV
vector 350 Sim2Scenario.node[71].veinsmobility posx ETV
vector 351 Sim2Scenario.node[71].veinsmobility posy ETV
vector 352 Sim2Scenario.node[69].veinsmobility acceleration ETV
vector 353 Sim2Scenario.node[69].veinsmobility co2emission ETV
33	63142 1588 9 73 8 72 65 0.973 8.9859220848101 186.01210493343 797.24503678042
32	64730 1799 9 73 8 72 65 -3.4370351042505 2.3457853516634 9.8871315484824 111.81020004765
29	66529 1703 8 73 7 72 66 3.5229142080061 13.885804472454 763.92442138946 9627.7929915245
21	68232 1591 7 73 6 72 67 31.356110592024 426.6 16165.182096548 5295256.0928978
20	69823 1243 7 73 6 72 67 623.4 806.71655435557 43152.658764389 27930964.184769
vector 354 Sim2Scenario.node[72].veinsmobility posx ETV
vector 355 Sim2Scenario.node[72].veinsmobility posy ETV
vector 356 Sim2Scenario.node[70].veinsmobility speed ETV
vector 357 Sim2Scenario.node[71].veinsmobility speed ETV
128	71296 1221 28 74 27 73 47 0.973 8.6453453187798 133.85719689626 566.38659192374
127	72517 1351 28 74 27 73 47 -3.135537052064 2.2232572488766 9.9320166478425 66.691163218169
124	73868 1282 27 74 26 73 48 3.5078264561924 13.887267420811 567.27332640231 7254.9442519772
116	75150 1319 26 74 25 73 49 430.63949014352 810.62771236104 28260.566756179 16883159.099312
115	76469 795 26 74 25 73 49 23.4 26.6 1205.878980287 29791.835252238
vector 358 Sim2Scenario.node[73].veinsmobility posx ETV
vector 359 Sim2Scenario.node[73].veinsmobility posy ETV
vector 360 Sim2Scenario.node[70].veinsmobility acceleration ETV
vector 361 Sim2Scenario.node[70].veinsmobility co2emission ETV
vector 362 Sim2Scenario.node[71].veinsmobility acceleration ETV
vector 363 Sim2Scenario.node[71].veinsmobility co2emission ETV
vector 364 Sim2Scenario.node[72].veinsmobility speed ETV
vector 365 Sim2Scenario.node[74].veinsmobility posx ETV
vector 366 Sim2Scenario.node[74].veinsmobility posy ETV
vector 367 Sim2Scenario.node[72].veinsmobility acceleration ETV
vector 368 Sim2Scenario.node[72].veinsmobility co2emission ETV
vector 369 Sim2Scenario.node[73].veinsmobility speed ETV
43	77995 1595 11 216 10 75 66 0.973 8.5290299308371 205.24158617711 973.06078378514
42	79590 1808 11 216 10 75 66 -4.4726458723443 2.2768419297854 10.074626026463 147.936138252
39	81398 1734 10 216 9 75 67 3.6270036264462 13.877270556565 761.65788063412 9395.8923034827
31	83132 1265 9 216 8 75 68 623.4 823.4 47610.717664928 33865664.516406
30	84397 1606 9 216 8 75 68 426.6 619.15516666416 34471.484660043 17808736.201058
68	86003 1544 16 216 15 75 61 0.973 8.4722664279242 163.91630462019 632.50159040049
67	87547 1696 16 216 15 75 61 -3.1607996680653 2.5301911424333 9.8898672627106 69.649459428297
64	89243 1609 15 216 14 75 62 3.3973366077989 13.888971277256 782.50877971338 10318.099566134
56	90852 1495 14 216 13 75 63 38.36469348464 626.6 25217.666604239 12771887.534299
55	92347 1179 14 216 13 75 63 623.4 816.16666898268 40730.121184017 26490773.525732
vector 370 Sim2Scenario.node[75].veinsmobility posx ETV
vector 371 Sim2Scenario.node[75].veinsmobility posy ETV
vector 372 Sim2Scenario.node[73].veinsmobility acceleration ETV
vector 373 Sim2Scenario.node[73].veinsmobility co2emission ETV
vector 374 Sim2Scenario.node[74].veinsmobility speed ETV
63	93827 1570 15 3691 14 76 63 0.973 8.6364354675409 180.96430619925 779.06851554482
62	95397 1744 15 3691 14 76 63 -4.442733806076 2.1352196676121 9.8746057435903 103.08677120214
59	97141 1649 14 3691 13 76 64 3.5885107131671 13.888562554053 760.4476639401 9689.0634772165
51	98790 1351 13 3691 12 76 65 441.43673894105 826.6 48093.386668127 36549025.464785
50	100141 1402 13 3691 12 76 65 226.6 419.33045742646 18354.645147213 5489593.2698183
vector 375 Sim2Scenario.node[76].veinsmobility posx ETV
vector 376 Sim2Scenario.node[76].veinsmobility posy ETV
vector 377 Sim2Scenario.node[74].veinsmobility acceleration ETV
vector 378 Sim2Scenario.node[74].veinsmobility co2emission ETV
vector 379 Sim2Scenario.node[75].veinsmobility speed ETV
48	101844 1623 12 3692 11 77 67 0.973 8.2641879631422 188.47713800978 812.32148524915
47	103467 1856 12 3692 11 77 67 -3.2153195784046 2.3903803224303 1.3512910917188 140.43531878068
44	105323 1767 11 3692 10 77 68 3.5946160302825 13.889501384608 771.404886702 9545.4174951623
36	107090 1430 10 3692 9 77 69 23.4 423.4 15475.131519639 5436777.3940709
35	108520 1485 10 3692 9 77 69 436.34111722979 811.64220992029 43202.314472959 27555894.336238
vector 380 Sim2Scenario.node[77].veinsmobility posx ETV
vector 381 Sim2Scenario.node[77].veinsmobility posy ETV
vector 382 Sim2Scenario.node[75].veinsmobility acceleration ETV
vector 383 Sim2Scenario.node[75].veinsmobility co2emission ETV
vector 384 Sim2Scenario.node[76].veinsmobility speed ETV
vector 385 Sim2Scenario.node[78].veinsmobility posx ETV
vector 386 Sim2Scenario.node[78].veinsmobility posy ETV
vector 387 Sim2Scenario.node[76].veinsmobility acceleration ETV
vector 388 Sim2Scenario.node[76].veinsmobility co2emission ETV
vector 389 Sim2Scenario.node[77].veinsmobility speed ETV
vector 390 Sim2Scenario.node[79].veinsmobility posx ETV
vector 391 Sim2Scenario.node[79].veinsmobility posy ETV
vector 392 Sim2Scenario.node[77].veinsmobility acceleration ETV
vector 393 Sim2Scenario.node[77].veinsmobility co2emission ETV
vector 394 Sim2Scenario.node[78].veinsmobility speed ETV
58	110908 1645 14 8385 13 80 68 0.973 8.7853057562305 211.26814521164 1002.0066638353
57	112553 1875 14 8385 13 80 68 -3.1574405016875 2.4827399817482 9.8272582514423 155.31428810609
54	114428 1798 13 8385 12 80 69 3.4423509383507 13.882109054266 770.24235432299 9405.741199029
46	116226 1291 12 8385 11 80 70 440.75448037583 623.4 42319.488241821 25724398.263497
45	117517 1689 12 8385 11 80 70 226.6 811.61667995088 32201.448411643 17579982.673617
vector 395 Sim2Scenario.node[80].veinsmobility posx ETV
vector 396 Sim2Scenario.node[80].veinsmobility posy ETV
vector 397 Sim2Scenario.node[78].veinsmobility acceleration ETV
vector 398 Sim2Scenario.node[78].veinsmobility co2emission ETV
vector 399 Sim2Scenario.node[79].veinsmobility speed ETV
vector 400 Sim2Scenario.node[81].veinsmobility posx ETV
vector 401 Sim2Scenario.node[81].veinsmobility posy ETV
vector 402 Sim2Scenario.node[79].veinsmobility acceleration ETV
vector 403 Sim2Scenario.node[79].veinsmobility co2emission ETV
vector 404 Sim2Scenario.node[80].veinsmobility speed ETV
vector 405 Sim2Scenario.node[82].veinsmobility posx ETV
vector 406 Sim2Scenario.node[82].veinsmobility posy ETV
vector 407 Sim2Scenario.node[80].veinsmobility acceleration ETV
vector 408 Sim2Scenario.node[80].veinsmobility co2emission ETV
vector 409 Sim2Scenario.node[81].veinsmobility speed ETV
98	120109 1580 22 8577 21 83 63 0.973 8.4276133863084 181.36963763691 769.11502780224
97	121689 1768 22 8577 21 83 63 -4.4712321171188 2.1250076595368 9.7944280854126 107.48177881682
94	123457 1677 21 8577 20 83 64 3.6172514760634 13.88748094046 759.79458337967 9673.8711948626
86	125134 1543 20 8577 19 83 65 431.01047080496 823.4 42051.366953327 28604064.752028
85	126677 1245 20 8577 19 83 65 223.4 411.64642465614 16453.272331307 4365991.2959364
vector 410 Sim2Scenario.node[83].veinsmobility posx ETV
vector 411 Sim2Scenario.node[83].veinsmobility posy ETV
vector 412 Sim2Scenario.node[81].veinsmobility acceleration ETV
vector 413 Sim2Scenario.node[81].veinsmobility co2emission ETV
vector 414 Sim2Scenario.node[82].veinsmobility speed ETV
28	128223 1971 8 8737 7 84 78 0.973 8.269885686356 212.81472031492 852.09193214603
27	130194 2205 8 8737 7 84 78 -4.0406378441723 2.2225296193827 9.8239989896766 110.04756977654
24	132399 2059 7 8737 6 84 79 3.0996251721153 13.885657052209 969.18616623485 12596.137381956
16	134458 1914 6 8737 5 84 80 226.6 811.65841929311 33609.376962209 17123562.444013
15	136372 1484 6 8737 5 84 80 426.6 623.4 39140.779535936 19720714.29316
346	137856 398 72 8737 71 84 14 1.6893097566272 8.7253972037592 49.828158734323 242.66267145436
345	138254 412 72 8737 71 84 14 -0.098340707896277 2.0653796189185 9.8303137763076 18.382060880618
344	138666 425 71 8737 70 84 15 3.9737090226986 13.870896265639 176.43953542755 2230.8013182446
336	139091 276 70 8737 69 84 16 26.6 26.6 425.6 11320.96
335	139367 451 70 8737 69 84 16 34.347380757295 205.91512805245 1728.4956766385 237339.98866281
78	139818 1651 18 8737 17 84 68 0.973 9.347352072338 206.19071018062 940.56198091888
77	141469 1886 18 8737 17 84 68 -3.1591739660043 2.2995617746771 9.914826979392 140.95247866734
74	143355 1804 17 8737 16 84 69 2.8013693035055 13.886808744448 762.10850222154 9286.3753155523
66	145159 1474 16 8737 15 84 70 244.45677066084 626.6 37900.664594304 21508854.612924
65	146633 1535 16 8737 15 84 70 31.651835111532 226.6 11993.567371265 2390382.9856985
vector 415 Sim2Scenario.node[84].veinsmobility posx ETV
vector 416 Sim2Scenario.node[84].veinsmobility posy ETV
vector 417 Sim2Scenario.node[82].veinsmobility acceleration ETV
vector 418 Sim2Scenario.node[82].veinsmobility co2emission ETV
vector 419 Sim2Scenario.node[83].veinsmobility speed ETV
vector 420 Sim2Scenario.node[83].veinsmobility acceleration ETV
vector 421 Sim2Scenario.node[83].veinsmobility co2emission ETV
vector 422 Sim2Scenario.node[84].veinsmobility speed ETV
vector 423 Sim2Scenario.node[85].veinsmobility posx ETV
vector 424 Sim2Scenario.node[85].veinsmobility posy ETV
vector 425 Sim2Scenario.node[86].veinsmobility posx ETV
vector 426 Sim2Scenario.node[86].veinsmobility posy ETV
vector 427 Sim2Scenario.node[84].veinsmobility acceleration ETV
vector 428 Sim2Scenario.node[84].veinsmobility co2emission ETV
vector 429 Sim2Scenario.node[87].veinsmobility posx ETV
vector 430 Sim2Scenario.node[87].veinsmobility posy ETV
vector 431 Sim2Scenario.node[85].veinsmobility speed ETV
vector 432 Sim2Scenario.node[86].veinsmobility speed ETV
113	149243 1698 25 8999 24 88 65 0.973 8.2909371665769 188.02302650659 788.38970828699
112	150941 1889 25 8999 24 88 65 -3.2084025583017 2.5059182305308 9.9344031762449 110.86239295725
109	152830 1806 24 8999 23 88 66 3.5423361058903 13.889317078406 776.49771989392 9813.3822884298
101	154636 1335 23 8999 22 88 67 26.6 226.6 7270.520160834 1332071.0749444
100	155971 1677 23 8999 22 88 67 238.35795385615 815.24248676416 32377.9731293 17184856.529259
vector 433 Sim2Scenario.node[88].veinsmobility posx ETV
vector 434 Sim2Scenario.node[88].veinsmobility posy ETV
vector 435 Sim2Scenario.node[85].veinsmobility acceleration ETV
vector 436 Sim2Scenario.node[85].veinsmobility co2emission ETV
vector 437 Sim2Scenario.node[86].veinsmobility acceleration ETV
vector 438 Sim2Scenario.node[86].veinsmobility co2emission ETV
vector 439 Sim2Scenario.node[87].veinsmobility speed ETV
vector 440 Sim2Scenario.node[87].veinsmobility acceleration ETV
vector 441 Sim2Scenario.node[87].veinsmobility co2emission ETV
vector 442 Sim2Scenario.node[88].veinsmobility speed ETV
vector 443 Sim2Scenario.node[88].veinsmobility acceleration ETV
vector 444 Sim2Scenario.node[88].veinsmobility co2emission ETV
vector 445 Sim2Scenario.node[89].veinsmobility posx ETV
vector 446 Sim2Scenario.node[89].veinsmobility posy ETV
vector 447 Sim2Scenario.node[90].veinsmobility posx ETV
vector 448 Sim2Scenario.node[90].veinsmobility posy ETV
388	158622 405 7124 9003 79 92 14 1.7229231002382 8.4465993507772 49.847348789718 249.94283283717
387	159027 429 7124 9003 79 92 14 -0.088223394842354 2.1622484001261 9.6589254408537 19.140509888181
384	159456 435 7123 9003 78 92 15 4.1072906577543 13.888081073791 178.78710081421 2280.1979382098
376	159891 304 3692 9003 77 92 16 826.6 826.6 13225.6 10932280.96
375	160195 463 3692 9003 77 92 16 34.371206456374 207.8090727457 1750.1363601893 243154.22564376
vector 449 Sim2Scenario.node[91].veinsmobility posx ETV
vector 450 Sim2Scenario.node[91].veinsmobility posy ETV
vector 451 Sim2Scenario.node[89].veinsmobility speed ETV
vector 452 Sim2Scenario.node[90].veinsmobility speed ETV
vector 453 Sim2Scenario.node[92].veinsmobility posx ETV
vector 454 Sim2Scenario.node[92].veinsmobility posy ETV
vector 455 Sim2Scenario.node[93].veinsmobility posx ETV
vector 456 Sim2Scenario.node[93].veinsmobility posy ETV
vector 457 Sim2Scenario.node[89].veinsmobility acceleration ETV
vector 458 Sim2Scenario.node[89].veinsmobility co2emission ETV
vector 459 Sim2Scenario.node[90].veinsmobility acceleration ETV
vector 460 Sim2Scenario.node[90].veinsmobility co2emission ETV
vector 461 Sim2Scenario.node[91].veinsmobility speed ETV
218	161432 1305 46 9006 45 94 50 0.973 8.5507497150096 157.59633261513 749.6009407589
217	162737 1457 46 9006 45 94 50 -3.3211367488196 2.5641062737629 9.6701088909206 114.45300389249
212	164194 1413 45 9006 44 94 51 3.3764682534139 13.884368328969 576.4307649622 7096.918499158
206	165607 1123 44 9006 43 94 52 226.6 426.6 16716.064070167 5787643.0533038
205	166730 1280 44 9006 43 94 52 438.35218967679 815.24068488301 32069.515176993 20210560.935073
vector 462 Sim2Scenario.node[94].veinsmobility posx ETV
vector 463 Sim2Scenario.node[94].veinsmobility posy ETV
vector 464 Sim2Scenario.node[91].veinsmobility acceleration ETV
vector 465 Sim2Scenario.node[91].veinsmobility co2emission ETV
vector 466 Sim2Scenario.node[92].veinsmobility speed ETV
vector 467 Sim2Scenario.node[93].veinsmobility speed ETV
138	168369 1698 30 9007 29 95 67 0.973 9.1104217018551 202.54460099367 937.54699864736
137	170067 1935 30 9007 29 95 67 -4.5 2.1951974842628 3.7534159558261 162.65905384692
134	172002 1875 29 9007 28 95 68 3.5373828112096 13.887915906974 762.46185132941 9246.0866406637
126	173877 1562 28 9007 27 95 69 226.6 423.4 22435.766009965 7764037.0157752
125	175439 1576 28 9007 27 95 69 226.6 423.4 22402.681086613 7737898.0473636
vector 468 Sim2Scenario.node[92].veinsmobility acceleration ETV
vector 469 Sim2Scenario.node[92].veinsmobility co2emission ETV
vector 470 Sim2Scenario.node[93].veinsmobility acceleration ETV
vector 471 Sim2Scenario.node[93].veinsmobility co2emission ETV
vector 472 Sim2Scenario.node[94].veinsmobility speed ETV
vector 473 Sim2Scenario.node[95].veinsmobility posx ETV
vector 474 Sim2Scenario.node[95].veinsmobility posy ETV
vector 475 Sim2Scenario.node[94].veinsmobility acceleration ETV
vector 476 Sim2Scenario.node[94].veinsmobility co2emission ETV
vector 477 Sim2Scenario.node[96].veinsmobility posx ETV
vector 478 Sim2Scenario.node[96].veinsmobility posy ETV
vector 479 Sim2Scenario.node[95].veinsmobility speed ETV
vector 480 Sim2Scenario.node[97].veinsmobility posx ETV
vector 481 Sim2Scenario.node[97].veinsmobility posy ETV
vector 482 Sim2Scenario.node[98].veinsmobility posx ETV
vector 483 Sim2Scenario.node[98].veinsmobility posy ETV
vector 484 Sim2Scenario.node[95].veinsmobility acceleration ETV
vector 485 Sim2Scenario.node[95].veinsmobility co2emission ETV
vector 486 Sim2Scenario.node[96].veinsmobility speed ETV
vector 487 Sim2Scenario.node[99].veinsmobility posx ETV
vector 488 Sim2Scenario.node[99].veinsmobility posy ETV
vector 489 Sim2Scenario.node[96].veinsmobility acceleration ETV
vector 490 Sim2Scenario.node[96].veinsmobility co2emission ETV
vector 491 Sim2Scenario.node[97].veinsmobility speed ETV
vector 492 Sim2Scenario.node[98].veinsmobility speed ETV
vector 493 Sim2Scenario.node[100].veinsmobility posx ETV
vector 494 Sim2Scenario.node[100].veinsmobility posy ETV
vector 495 Sim2Scenario.node[97].veinsmobility acceleration ETV
vector 496 Sim2Scenario.node[97].veinsmobility co2emission ETV
vector 497 Sim2Scenario.node[98].veinsmobility acceleration ETV
vector 498 Sim2Scenario.node[98].veinsmobility co2emission ETV
vector 499 Sim2Scenario.node[99].veinsmobility speed ETV
vector 500 Sim2Scenario.node[101].veinsmobility posx ETV
vector 501 Sim2Scenario.node[101].veinsmobility posy ETV
vector 502 Sim2Scenario.node[99].veinsmobility acceleration ETV
vector 503 Sim2Scenario.node[99].veinsmobility co2emission ETV
vector 504 Sim2Scenario.node[100].veinsmobility speed ETV
259	179256 1297 55 9014 54 102 49 0.973 8.5827690531574 157.11103943224 755.72797694373
258	180553 1449 55 9014 54 102 49 -4.4547244845487 2.2611471495149 10.939231991928 109.77674385921
256	182002 1404 54 9014 53 102 50 2.8763442045643 13.889917687066 578.06654737465 7206.9053494887
249	183406 1103 53 9014 52 102 51 237.45052724309 423.4 19709.352250365 7814605.6194614
248	184509 1262 53 9014 52 102 51 235.67106175309 623.4 25487.650622036 13571985.744159
vector 505 Sim2Scenario.node[102].veinsmobility posx ETV
vector 506 Sim2Scenario.node[102].veinsmobility posy ETV
vector 507 Sim2Scenario.node[100].veinsmobility acceleration ETV
vector 508 Sim2Scenario.node[100].veinsmobility co2emission ETV
vector 509 Sim2Scenario.node[101].veinsmobility speed ETV
vector 510 Sim2Scenario.node[103].veinsmobility posx ETV
vector 511 Sim2Scenario.node[103].veinsmobility posy ETV
vector 512 Sim2Scenario.node[101].veinsmobility acceleration ETV
vector 513 Sim2Scenario.node[101].veinsmobility co2emission ETV
vector 514 Sim2Scenario.node[102].veinsmobility speed ETV
83	186383 2163 19 9017 18 104 87 0.973 8.4954785182148 266.0391239568 1235.9680504903
82	188546 2436 19 9017 18 104 87 -4.5 2.5033490096172 9.6712896563585 217.35574963506
79	190982 2346 18 9017 17 104 88 0.53709502093064 13.8870143887 964.86632790101 11836.167363407
71	193328 1837 17 9017 16 104 89 423.4 623.4 48130.687744845 26692143.850581
70	195165 2077 17 9017 16 104 89 26.6 611.63982373774 26295.596775498 10930966.132917
183	197242 1626 39 9017 38 104 67 0.973 8.7359699486349 174.40416532147 761.33529233912
182	198868 1984 39 9017 38 104 67 -3.2479678591981 2.342380305503 -0.41323220242467 150.40386642561
179	200852 1938 38 9017 37 104 68 4.5581980579804e-014 13.889831382905 567.74088688946 6666.4348836057
171	202790 1248 37 9017 36 104 69 623.4 626.6 43118.067377 26944633.584938
170	204038 1854 37 9017 36 104 69 430.86631149981 811.66942286851 40991.643833827 25080160.360686
vector 515 Sim2Scenario.node[102].veinsmobility acceleration ETV
vector 516 Sim2Scenario.node[102].veinsmobility co2emission ETV
vector 517 Sim2Scenario.node[103].veinsmobility speed ETV
vector 518 Sim2Scenario.node[104].veinsmobility posx ETV
vector 519 Sim2Scenario.node[104].veinsmobility posy ETV
vector 520 Sim2Scenario.node[105].veinsmobility posx ETV
vector 521 Sim2Scenario.node[105].veinsmobility posy ETV
vector 522 Sim2Scenario.node[103].veinsmobility acceleration ETV
vector 523 Sim2Scenario.node[103].veinsmobility co2emission ETV
vector 524 Sim2Scenario.node[106].veinsmobility posx ETV
vector 525 Sim2Scenario.node[106].veinsmobility posy ETV
vector 526 Sim2Scenario.node[104].veinsmobility speed ETV
vector 527 Sim2Scenario.node[105].veinsmobility speed ETV
vector 528 Sim2Scenario.node[107].veinsmobility posx ETV
vector 529 Sim2Scenario.node[107].veinsmobility posy ETV
vector 530 Sim2Scenario.node[104].veinsmobility acceleration ETV
vector 531 Sim2Scenario.node[104].veinsmobility co2emission ETV
vector 532 Sim2Scenario.node[105].veinsmobility acceleration ETV
vector 533 Sim2Scenario.node[105].veinsmobility co2emission ETV
vector 534 Sim2Scenario.node[106].veinsmobility speed ETV
vector 535 Sim2Scenario.node[106].veinsmobility acceleration ETV
vector 536 Sim2Scenario.node[106].veinsmobility co2emission ETV
vector 537 Sim2Scenario.node[107].veinsmobility speed ETV
vector 538 Sim2Scenario.node[108].veinsmobility posx ETV
vector 539 Sim2Scenario.node[108].veinsmobility posy ETV
vector 540 Sim2Scenario.node[109].veinsmobility posx ETV
vector 541 Sim2Scenario.node[109].veinsmobility posy ETV
vector 542 Sim2Scenario.node[107].veinsmobility acceleration ETV
vector 543 Sim2Scenario.node[107].veinsmobility co2emission ETV
153	207669 2128 33 9023 32 110 79 0.973 8.8201189077618 215.69610206645 852.82509657665
152	209797 2354 33 9023 32 110 79 -3.3080018564374 2.3696890860586 9.7749283966067 109.90908594244
149	212151 2231 32 9023 31 110 80 3.9029959235829 13.888210253399 976.27824320616 12595.411964724
141	214382 1807 31 9023 30 110 81 423.4 826.6 52973.915452151 37057976.340018
140	216189 1958 31 9023 30 110 81 223.4 610.21111852331 25576.499638612 9115100.946033
vector 544 Sim2Scenario.node[110].veinsmobility posx ETV
vector 545 Sim2Scenario.node[110].veinsmobility posy ETV
vector 546 Sim2Scenario.node[108].veinsmobility speed ETV
vector 547 Sim2Scenario.node[109].veinsmobility speed ETV
vector 548 Sim2Scenario.node[108].veinsmobility acceleration ETV
vector 549 Sim2Scenario.node[108].veinsmobility co2emission ETV
vector 550 Sim2Scenario.node[109].veinsmobility acceleration ETV
vector 551 Sim2Scenario.node[109].veinsmobility co2emission ETV
vector 552 Sim2Scenario.node[110].veinsmobility speed ETV
vector 553 Sim2Scenario.node[110].veinsmobility acceleration ETV
vector 554 Sim2Scenario.node[110].veinsmobility co2emission ETV
143	218833 2218 31 9026 30 113 84 0.973 8.9467829460454 240.1754790972 1042.8330680661
142	221051 2507 31 9026 30 113 84 -4.3963258650393 2.2543822468089 9.8657235010323 165.53689344518
139	223558 2376 30 9026 29 113 85 0.49356985775057 13.88658614065 963.35718761893 12117.601296692
131	225934 2254 29 9026 28 113 86 26.6 419.2160304952 16634.551801203 4888387.3412967
130	228188 1760 29 9026 28 113 86 426.6 626.6 48313.447334883 27772884.700339
368	229948 1020 216 9026 75 113 39 0.973 7.9079949093997 111.8485034458 489.4895099988
367	230968 1190 216 9026 75 113 39 -2.8683864805369 2.2157391530942 0.57387758225541 104.48816596467
364	232158 1170 215 9026 74 113 40 0.72751746904952 13.871598233362 373.35923988598 4283.3230782967
355	233328 996 74 9026 73 113 41 233.72134073952 423.4 15235.672758762 5862330.6908848
354	234324 1007 74 9026 73 113 41 226.6 411.63434975442 11144.212931013 3198849.6944855
173	235331 2110 37 9026 36 113 78 0.973 8.03040465033 211.05971456388 825.27008718716
172	237441 2335 37 9026 36 113 78 -4.4613936721353 2.1716121752001 9.7034168367776 105.97775192092
169	239776 2215 36 9026 35 113 79 3.6352807922568 13.889304955686 967.25554379148 12537.063598589
161	241991 1894 35 9026 34 113 80 23.4 611.63318202506 16120.519421385 6591993.7144484
160	243885 1785 35 9026 34 113 80 631.02326013873 826.6 62428.658085616 49079347.714235
vector 555 Sim2Scenario.node[111].veinsmobility posx ETV
vector 556 Sim2Scenario.node[111].veinsmobility posy ETV
vector 557 Sim2Scenario.node[112].veinsmobility posx ETV
vector 558 Sim2Scenario.node[112].veinsmobility posy ETV
vector 559 Sim2Scenario.node[113].veinsmobility posx ETV
vector 560 Sim2Scenario.node[113].veinsmobility posy ETV
vector 561 Sim2Scenario.node[114].veinsmobility posx ETV
vector 562 Sim2Scenario.node[114].veinsmobility posy ETV
vector 563 Sim2Scenario.node[111].veinsmobility speed ETV
vector 564 Sim2Scenario.node[112].veinsmobility speed ETV
vector 565 Sim2Scenario.node[115].veinsmobility posx ETV
vector 566 Sim2Scenario.node[115].veinsmobility posy ETV
vector 567 Sim2Scenario.node[111].veinsmobility acceleration ETV
vector 568 Sim2Scenario.node[111].veinsmobility co2emission ETV
vector 569 Sim2Scenario.node[112].veinsmobility acceleration ETV
vector 570 Sim2Scenario.node[112].veinsmobility co2emission ETV
vector 571 Sim2Scenario.node[113].veinsmobility speed ETV
vector 572 Sim2Scenario.node[114].veinsmobility speed ETV
246	246748 1783 52 9031 51 117 67 0.973 8.2398725508285 208.26753681698 958.26201594847
245	248531 2005 52 9031 51 117 67 -3.3275160373824 2.3356007177709 9.8143541445729 154.9664019323
244	250536 1929 51 9031 50 117 68 3.6170212272008 13.888246729195 767.31278296683 9428.5138595162
236	252465 1426 50 9031 49 117 69 444.40345490063 623.4 41747.301714048 25390252.887135
235	253891 1823 50 9031 49 117 69 226.6 811.63186995971 31737.743365309 17319287.726007
vector 573 Sim2Scenario.node[113].veinsmobility acceleration ETV
vector 574 Sim2Scenario.node[113].veinsmobility co2emission ETV
vector 575 Sim2Scenario.node[114].veinsmobility acceleration ETV
vector 576 Sim2Scenario.node[114].veinsmobility co2emission ETV
vector 577 Sim2Scenario.node[115].veinsmobility speed ETV
188	256035 2156 40 9032 39 118 80 0.973 8.9900662044285 234.43237773923 1012.3697507314
187	258191 2392 40 9032 39 118 80 -4.4973848274443 2.1317927793786 10.057684958637 156.29374665842
184	260583 2280 39 9032 38 118 81 3.7180462797528 13.889037982535 970.47630726564 12371.561689182
176	262863 2015 38 9032 37 118 82 423.4 823.4 53034.984964299 36279494.733298
175	264878 1847 38 9032 37 118 82 437.28595053105 823.4 55212.840707852 38113400.130631
338	266725 1374 70 9032 69 118 50 0.973 7.9809620996355 155.207089981 725.30902149887
337	268099 1527 70 9032 69 118 50 -3.3401722544027 2.1967848279187 9.6472577121476 107.50392851078
334	269626 1477 69 9032 68 118 51 3.5880155910715 13.887176382102 566.45414264666 6936.5875950224
324	271103 1158 68 9032 67 118 52 641.23619819614 826.6 41572.240570338 33369013.21225
323	272261 1370 68 9032 67 118 52 230.69151631016 426.6 18414.910833209 6783337.7433107
vector 578 Sim2Scenario.node[116].veinsmobility posx ETV
vector 579 Sim2Scenario.node[116].veinsmobility posy ETV
vector 580 Sim2Scenario.node[117].veinsmobility posx ETV
vector 581 Sim2Scenario.node[117].veinsmobility posy ETV
vector 582 Sim2Scenario.node[115].veinsmobility acceleration ETV
vector 583 Sim2Scenario.node[115].veinsmobility co2emission ETV
118	273994 2160 26 9033 25 119 95 0.973 8.4478380784518 205.43360701008 788.15397913276
117	276154 2260 26 9033 25 119 95 -3.1173637429796 2.1167024074285 10.033497501535 126.0444862242
114	278414 2199 25 9033 24 119 96 0 13.883760034633 568.63318126123 6760.6180257931
106	280613 1959 24 9033 23 119 97 438.34377363954 626.6 59317.504842874 36431392.705971
105	282572 2300 24 9033 23 119 97 431.57583351548 626.6 56123.593669058 32881711.130315
vector 584 Sim2Scenario.node[118].veinsmobility posx ETV
vector 585 Sim2Scenario.node[118].veinsmobility posy ETV
vector 586 Sim2Scenario.node[116].veinsmobility speed ETV
vector 587 Sim2Scenario.node[117].veinsmobility speed ETV
193	285106 2166 41 9162 40 120 81 0.973 9.1702128466764 226.33869502039 936.54740495103
192	287272 2429 41 9162 40 120 81 -3.2601261038233 2.1511138456408 9.7723408811977 104.04101392911
189	289701 2317 40 9162 39 120 82 3.4629105852087 13.888270543136 983.59299878034 12459.690354493
181	292018 2198 39 9162 38 120 83 38.389116823078 826.6 42127.712128744 27392633.966934
180	294216 1681 39 9162 38 120 83 623.4 817.23860192935 53214.439095147 34286950.645878
vector 588 Sim2Scenario.node[116].veinsmobility acceleration ETV
vector 589 Sim2Scenario.node[116].veinsmobility co2emission ETV
vector 590 Sim2Scenario.node[117].veinsmobility acceleration ETV
vector 591 Sim2Scenario.node[117].veinsmobility co2emission ETV
vector 592 Sim2Scenario.node[118].veinsmobility speed ETV
vector 593 Sim2Scenario.node[119].veinsmobility posx ETV
vector 594 Sim2Scenario.node[119].veinsmobility posy ETV
vector 595 Sim2Scenario.node[118].veinsmobility acceleration ETV
vector 596 Sim2Scenario.node[118].veinsmobility co2emission ETV
vector 597 Sim2Scenario.node[120].veinsmobility posx ETV
vector 598 Sim2Scenario.node[120].veinsmobility posy ETV
vector 599 Sim2Scenario.node[121].veinsmobility posx ETV
vector 600 Sim2Scenario.node[121].veinsmobility posy ETV
vector 601 Sim2Scenario.node[119].veinsmobility speed ETV
vector 602 Sim2Scenario.node[119].veinsmobility acceleration ETV
vector 603 Sim2Scenario.node[119].veinsmobility co2emission ETV
vector 604 Sim2Scenario.node[120].veinsmobility speed ETV
vector 605 Sim2Scenario.node[121].veinsmobility speed ETV
223	297005 2174 47 13384 46 124 79 0.973 8.1868509406293 215.24620854116 842.19293855451
222	299179 2404 47 13384 46 124 79 -4.4645616563612 2.0432770088897 9.6712950280589 115.09970404027
219	301583 2280 46 13384 45 124 80 3.5684427641658 13.888778834385 966.87619085952 12476.929892781
210	303863 1822 45 13384 44 124 81 436.39906244561 826.6 61119.855453334 47209072.910737
209	305685 1981 45 13384 44 124 81 26.6 419.34472279931 14256.464240241 4269852.1276937
198	307666 2235 42 13384 41 124 84 0.973 8.6200816772379 258.72742486512 1200.8736089742
197	309901 2511 42 13384 41 124 84 -4.483309785103 2.5589492825046 10.062931396109 199.70327343774
194	312412 2418 41 13384 40 124 85 3.4357354951372 13.887080418277 962.00387264316 11824.532518483
186	314830 1928 40 13384 39 124 86 226.6 426.6 29802.689633692 10954660.58778
185	316758 2154 40 13384 39 124 86 38.337922191965 623.4 34104.408445099 16294085.585284
vector 606 Sim2Scenario.node[122].veinsmobility posx ETV
vector 607 Sim2Scenario.node[122].veinsmobility posy ETV
vector 608 Sim2Scenario.node[120].veinsmobility acceleration ETV
vector 609 Sim2Scenario.node[120].veinsmobility co2emission ETV
vector 610 Sim2Scenario.node[121].veinsmobility acceleration ETV
vector 611 Sim2Scenario.node[121].veinsmobility co2emission ETV
vector 612 Sim2Scenario.node[123].veinsmobility posx ETV
vector 613 Sim2Scenario.node[123].veinsmobility posy ETV
vector 614 Sim2Scenario.node[122].veinsmobility speed ETV
vector 615 Sim2Scenario.node[124].veinsmobility posx ETV
vector 616 Sim2Scenario.node[124].veinsmobility posy ETV
vector 617 Sim2Scenario.node[122].veinsmobility acceleration ETV
vector 618 Sim2Scenario.node[122].veinsmobility co2emission ETV
vector 619 Sim2Scenario.node[123].veinsmobility speed ETV
333	319771 1722 69 14983 68 127 60 0.973 8.1983426062793 158.42434995644 588.10936595974
332	321493 1867 69 14983 68 127 60 -4.5 2.0409841470467 9.5426550506801 58.557274304185
329	323360 1776 68 14983 67 127 61 4.2432959168753 13.881609229185 781.59135174349 10350.565544962
318	325136 1641 67 14983 66 127 62 23.4 611.60726673913 15680.53419206 6598610.0640133
317	326777 1353 67 14983 66 127 62 636.16773754033 826.6 49821.702141466 40188130.162151
148	328130 2491 32 14983 31 127 97 0.973 8.1735765178244 255.89723541973 1050.6061342154
147	330621 2820 32 14983 31 127 97 -3.3895134167272 2.4994437236432 9.8897377592586 175.81603843025
144	333441 2703 31 14983 30 127 98 0 13.885318338973 952.75604588536 11709.605123225
136	336144 2357 30 14983 29 127 99 230.64521536704 626.6 48738.460158001 26331985.197893
135	338501 2290 30 14983 29 127 99 223.4 419.14426873706 27817.117246466 8370779.5381059
vector 620 Sim2Scenario.node[123].veinsmobility acceleration ETV
vector 621 Sim2Scenario.node[123].veinsmobility co2emission ETV
vector 622 Sim2Scenario.node[124].veinsmobility speed ETV
233	340981 2222 49 15737 48 128 81 0.973 8.5327969721987 236.90948629409 1033.6812763654
232	343203 2446 49 15737 48 128 81 -4.5 2.4826353177242 9.7842229243756 155.89840311897
229	345649 2349 48 15737 47 128 82 3.4965958457779 13.888721666427 971.38066899775 12304.661855052
221	347998 2083 47 15737 46 128 83 226.6 626.6 33426.558338925 15480808.076289
220	350081 1889 47 15737 46 128 83 26.6 416.28017652407 14944.218958675 3621402.3798548
vector 623 Sim2Scenario.node[124].veinsmobility acceleration ETV
vector 624 Sim2Scenario.node[124].veinsmobility co2emission ETV
393	352101 1405 8385 15738 80 129 50 0.973 7.6746253087023 156.13502956716 714.56099300408
392	353506 1556 8385 15738 80 129 50 -3.3626574431675 2.316372695805 9.7043284422752 106.54003753016
389	355062 1509 7124 15738 79 129 51 4.1543102462626 13.889604181915 580.70011688659 7171.0607401562
381	356571 1183 7123 15738 78 129 52 623.4 813.57549576659 33835.299453314 22161807.437882
380	357754 1381 7123 15738 78 129 52 23.4 411.62985418206 8517.9157859305 2351354.0057532
vector 625 Sim2Scenario.node[125].veinsmobility posx ETV
vector 626 Sim2Scenario.node[125].veinsmobility posy ETV
vector 627 Sim2Scenario.node[126].veinsmobility posx ETV
vector 628 Sim2Scenario.node[126].veinsmobility posy ETV
vector 629 Sim2Scenario.node[127].veinsmobility posx ETV
vector 630 Sim2Scenario.node[127].veinsmobility posy ETV
93	359483 2905 21 15886 20 130 111 0.973 8.560646659091 293.72122915844 1146.2587664055
92	362388 3234 21 15886 20 130 111 -4.5 2.3399011120154 9.9144306755103 142.01480237523
89	365622 3049 20 15886 19 130 112 3.8093035120389 13.889719697011 1371.4797625507 17749.096676283
81	368671 2792 19 15886 18 130 113 35.040208927142 823.4 65753.436252241 45532456.908818
80	371463 2278 19 15886 18 130 113 226.6 623.4 39318.832840473 16696106.020349
306	373741 1853 64 15886 63 130 68 0.973 8.6963274626935 210.37608059246 986.89019412847
305	375594 2082 64 15886 63 130 68 -3.3336396843593 2.288608036798 9.9371724542391 158.60215004314
304	377676 2007 63 15886 62 130 69 3.5268650821643 13.887394155613 763.50569066441 9319.7005890245
293	379683 1352 62 15886 61 130 70 223.4 226.6 15811.930959543 3571795.7917931
292	381035 2035 62 15886 61 130 70 238.37225903636 819.16547977132 40184.830553213 25389232.495317
vector 631 Sim2Scenario.node[128].veinsmobility posx ETV
vector 632 Sim2Scenario.node[128].veinsmobility posy ETV
vector 633 Sim2Scenario.node[129].veinsmobility posx ETV
vector 634 Sim2Scenario.node[129].veinsmobility posy ETV
vector 635 Sim2Scenario.node[125].veinsmobility speed ETV
vector 636 Sim2Scenario.node[126].veinsmobility speed ETV
vector 637 Sim2Scenario.node[127].veinsmobility speed ETV
163	383479 2669 35 15887 34 131 98 0.973 8.9056962304542 286.55434747043 1277.8345318697
162	386148 2962 35 15887 34 131 98 -4.4968223749078 2.5246910663042 9.8935420252942 202.41165547109
159	389110 2807 34 15887 33 131 99 3.3255649295485 13.88908819149 1158.4976141301 14586.58690264
151	391917 2523 33 15887 32 131 100 23.4 619.16647523162 29992.716129586 12874032.66439
150	394440 2224 33 15887 32 131 100 623.4 826.6 69508.324308123 49020668.899027
vector 638 Sim2Scenario.node[130].veinsmobility posx ETV
vector 639 Sim2Scenario.node[130].veinsmobility posy ETV
vector 640 Sim2Scenario.node[125].veinsmobility acceleration ETV
vector 641 Sim2Scenario.node[125].veinsmobility co2emission ETV
vector 642 Sim2Scenario.node[126].veinsmobility acceleration ETV
vector 643 Sim2Scenario.node[126].veinsmobility co2emission ETV
vector 644 Sim2Scenario.node[127].veinsmobility acceleration ETV
vector 645 Sim2Scenario.node[127].veinsmobility co2emission ETV
vector 646 Sim2Scenario.node[128].veinsmobility speed ETV
vector 647 Sim2Scenario.node[129].veinsmobility speed ETV
38	397291 3100 10 15888 9 132 124 0.973 8.2772551057279 367.29823848522 1682.9277055971
37	400391 3550 10 15888 9 132 124 -4.3678160246992 2.388481997042 9.8460510417878 281.80095410699
34	403941 3398 9 15888 8 132 125 3.283247916084e-007 13.886526254779 1366.0321549738 16852.903375415
26	407339 2850 8 15888 7 132 126 230.6489579221 814.432979115 67803.620831223 39356134.406527
25	410189 2787 8 15888 7 132 126 223.4 826.6 74782.243264269 51868941.723641
vector 648 Sim2Scenario.node[131].veinsmobility posx ETV
vector 649 Sim2Scenario.node[131].veinsmobility posy ETV
vector 650 Sim2Scenario.node[132].veinsmobility posx ETV
vector 651 Sim2Scenario.node[132].veinsmobility posy ETV
vector 652 Sim2Scenario.node[128].veinsmobility acceleration ETV
vector 653 Sim2Scenario.node[128].veinsmobility co2emission ETV
vector 654 Sim2Scenario.node[129].veinsmobility acceleration ETV
vector 655 Sim2Scenario.node[129].veinsmobility co2emission ETV
vector 656 Sim2Scenario.node[130].veinsmobility speed ETV
vector 657 Sim2Scenario.node[130].veinsmobility acceleration ETV
vector 658 Sim2Scenario.node[130].veinsmobility co2emission ETV
vector 659 Sim2Scenario.node[131].veinsmobility speed ETV
vector 660 Sim2Scenario.node[132].veinsmobility speed ETV
vector 661 Sim2Scenario.node[133].veinsmobility posx ETV
vector 662 Sim2Scenario.node[133].veinsmobility posy ETV
vector 663 Sim2Scenario.node[131].veinsmobility acceleration ETV
vector 664 Sim2Scenario.node[131].veinsmobility co2emission ETV
vector 665 Sim2Scenario.node[132].veinsmobility acceleration ETV
vector 666 Sim2Scenario.node[132].veinsmobility co2emission ETV
133	414156 2985 29 15891 28 135 108 0.973 9.0859385736502 292.61173453242 1137.3874830226
132	417141 3263 29 15891 28 135 108 -4.5 2.1853623298369 9.7790401608949 169.12556595798
129	420404 3108 28 15891 27 135 109 3.7817838354851 13.889716829786 1359.5711437349 17770.835175655
121	423512 2337 27 15891 26 135 110 26.6 223.4 9182.3253903449 1442117.4434787
120	425849 2782 27 15891 26 135 110 26.6 823.4 50813.233091773 33801128.253621
vector 667 Sim2Scenario.node[134].veinsmobility posx ETV
vector 668 Sim2Scenario.node[134].veinsmobility posy ETV
vector 669 Sim2Scenario.node[133].veinsmobility speed ETV
531	428806 882 9021 15892 108 136 29 1.6591114083024 7.7886656425998 80.823811153914 304.51026561494
530	429688 942 9021 15892 108 136 29 -0.10748213775223 2.0428717237664 10.680781314181 20.362433018558
526	430630 907 9020 15892 107 136 30 3.091573937643 13.881956694468 380.04670638019 5041.8228215549
519	431537 943 9019 15892 106 136 31 237.54845961671 612.23802194934 12655.904992184 5603126.5521217
518	432480 635 9019 15892 106 136 31 623.4 623.4 19325.4 12047454.36
vector 670 Sim2Scenario.node[133].veinsmobility acceleration ETV
vector 671 Sim2Scenario.node[133].veinsmobility co2emission ETV
vector 672 Sim2Scenario.node[134].veinsmobility speed ETV
283	433305 2220 60 15893 59 137 79 0.973 7.9068751543392 222.06527088096 911.4603792506
282	435525 2446 60 15893 59 137 79 -4.2847488506509 2.3202459499286 10.816457224921 111.70846766175
279	437971 2334 59 15893 58 137 80 3.0587708754673 13.889430486427 983.4200598919 12708.484704495
271	440305 2042 58 15893 57 137 81 223.4 823.4 42909.837662326 27349797.067692
270	442347 1917 58 15893 57 137 81 432.45153930441 816.45102702942 51224.012873274 32867800.499124
326	444264 1963 68 15893 67 137 71 0.973 8.0327456241753 197.27714122495 824.719942008
325	446227 2209 68 15893 67 137 71 -3.2865905337138 2.1396999729052 9.7139003346005 134.2642934491
321	448436 2113 67 15893 66 137 72 0.44675621849194 13.887646272571 765.46217914514 9588.9705369352
313	450549 1987 66 15893 65 137 73 23.4 419.3053845512 15330.705794517 4843942.6993673
312	452536 1630 66 15893 65 137 73 241.17973979284 426.6 29722.632024795 12246088.9733
vector 673 Sim2Scenario.node[135].veinsmobility posx ETV
vector 674 Sim2Scenario.node[135].veinsmobility posy ETV
vector 675 Sim2Scenario.node[134].veinsmobility acceleration ETV
vector 676 Sim2Scenario.node[134].veinsmobility co2emission ETV
228	454413 2592 48 15894 47 138 92 0.973 8.4480963136712 239.41753073124 878.75571346559
227	457005 2847 48 15894 47 138 92 -4.4373261085595 2.2239299357147 9.8373990896682 100.96082806801
224	459852 2685 47 15894 46 138 93 4.0514964356029 13.889775987107 1178.5035539328 15519.070187663
214	462537 2097 46 15894 45 138 94 426.6 826.6 65478.73094905 48131308.630774
213	464634 2428 46 15894 45 138 94 34.375117776587 813.09971575932 45750.125283474 26666562.444989
vector 677 Sim2Scenario.node[136].veinsmobility posx ETV
vector 678 Sim2Scenario.node[136].veinsmobility posy ETV
vector 679 Sim2Scenario.node[137].veinsmobility posx ETV
vector 680 Sim2Scenario.node[137].veinsmobility posy ETV
vector 681 Sim2Scenario.node[135].veinsmobility speed ETV
vector 682 Sim2Scenario.node[138].veinsmobility posx ETV
vector 683 Sim2Scenario.node[138].veinsmobility posy ETV
vector 684 Sim2Scenario.node[135].veinsmobility acceleration ETV
vector 685 Sim2Scenario.node[135].veinsmobility co2emission ETV
vector 686 Sim2Scenario.node[136].veinsmobility speed ETV
vector 687 Sim2Scenario.node[137].veinsmobility speed ETV
168	467718 2852 36 15896 35 140 106 0.973 8.7859659920956 279.40798444292 1116.5790163349
167	470570 3202 36 15896 35 140 106 -4.127757753171 2.1391695374483 9.9640125977325 173.66765881903
164	473772 3042 35 15896 34 140 107 0 13.889876513225 1159.0577461471 14748.59271854
156	476814 2552 34 15896 33 140 108 223.4 826.6 51164.944955251 31062064.301288
155	479366 2628 34 15896 33 140 108 238.38965383801 618.91923260408 49253.987775229 23412004.563785
vector 688 Sim2Scenario.node[139].veinsmobility posx ETV
vector 689 Sim2Scenario.node[139].veinsmobility posy ETV
vector 690 Sim2Scenario.node[136].veinsmobility acceleration ETV
vector 691 Sim2Scenario.node[136].veinsmobility co2emission ETV
vector 692 Sim2Scenario.node[137].veinsmobility acceleration ETV
vector 693 Sim2Scenario.node[137].veinsmobility co2emission ETV
vector 694 Sim2Scenario.node[138].veinsmobility speed ETV
438	482431 1481 9000 15897 89 141 53 0.973 8.2331277281984 164.57093828162 764.08937635442
437	483912 1660 9000 15897 89 141 53 -3.3466006466077 2.2105078818137 7.826582403629 119.66904917181
432	485572 1620 8999 15897 88 141 54 3.2615371534335 13.868390366468 577.45664332207 6852.9157464762
426	487192 1475 8998 15897 87 141 55 438.38467609281 817.20517786995 34189.077694098 21725815.544582
425	488667 1325 8998 15897 87 141 55 223.4 423.4 17820.748624472 6212633.8680451
vector 695 Sim2Scenario.node[138].veinsmobility acceleration ETV
vector 696 Sim2Scenario.node[138].veinsmobility co2emission ETV
vector 697 Sim2Scenario.node[139].veinsmobility speed ETV
383	490182 1834 7123 15898 78 142 65 0.973 8.0497908659682 183.00795554717 771.7517120992
382	492016 2047 7123 15898 78 142 65 -2.9910092233858 2.3145703928033 5.2790191572919 107.91483509339
379	494063 1971 3692 15898 77 142 66 3.4078042267277 13.888161151374 775.85848167469 9713.6924195251
371	496034 1842 3691 15898 76 142 67 223.4 812.19254564834 29977.098045843 16206089.544059
370	497876 1517 3691 15898 76 142 67 239.47839631877 426.6 26927.415682975 11005390.31873
vector 698 Sim2Scenario.node[140].veinsmobility posx ETV
vector 699 Sim2Scenario.node[140].veinsmobility posy ETV
vector 700 Sim2Scenario.node[141].veinsmobility posx ETV
vector 701 Sim2Scenario.node[141].veinsmobility posy ETV
vector 702 Sim2Scenario.node[139].veinsmobility acceleration ETV
vector 703 Sim2Scenario.node[139].veinsmobility co2emission ETV
vector 704 Sim2Scenario.node[142].veinsmobility posx ETV
vector 705 Sim2Scenario.node[142].veinsmobility posy ETV
vector 706 Sim2Scenario.node[143].veinsmobility posx ETV
vector 707 Sim2Scenario.node[143].veinsmobility posy ETV
vector 708 Sim2Scenario.node[140].veinsmobility speed ETV
vector 709 Sim2Scenario.node[141].veinsmobility speed ETV
vector 710 Sim2Scenario.node[144].veinsmobility posx ETV
vector 711 Sim2Scenario.node[144].veinsmobility posy ETV
vector 712 Sim2Scenario.node[140].veinsmobility acceleration ETV
vector 713 Sim2Scenario.node[140].veinsmobility co2emission ETV
vector 714 Sim2Scenario.node[141].veinsmobility acceleration ETV
vector 715 Sim2Scenario.node[141].veinsmobility co2emission ETV
vector 716 Sim2Scenario.node[142].veinsmobility speed ETV
vector 717 Sim2Scenario.node[143].veinsmobility speed ETV
vector 718 Sim2Scenario.node[145].veinsmobility posx ETV
vector 719 Sim2Scenario.node[145].veinsmobility posy ETV
vector 720 Sim2Scenario.node[142].veinsmobility acceleration ETV
vector 721 Sim2Scenario.node[142].veinsmobility co2emission ETV
vector 722 Sim2Scenario.node[143].veinsmobility acceleration ETV
vector 723 Sim2Scenario.node[143].veinsmobility co2emission ETV
vector 724 Sim2Scenario.node[144].veinsmobility speed ETV
vector 725 Sim2Scenario.node[144].veinsmobility acceleration ETV
vector 726 Sim2Scenario.node[144].veinsmobility co2emission ETV
vector 727 Sim2Scenario.node[145].veinsmobility speed ETV
398	501229 1904 8386 15905 81 147 67 0.973 8.8548006389941 207.13503949029 957.20324738262
397	503133 2118 8386 15905 81 147 67 -4.3946127723069 2.2116483504116 9.6970100265 153.20876214545
394	505251 2043 8385 15905 80 147 68 2.6693855773273 13.889716980581 771.33528598928 9518.8891566534
386	507294 1551 7124 15905 79 147 69 226.6 423.4 24627.24515706 9291508.2218667
385	508845 1916 7124 15905 79 147 69 426.6 811.59001191279 38192.447897628 22182195.231908
vector 728 Sim2Scenario.node[145].veinsmobility acceleration ETV
vector 729 Sim2Scenario.node[145].veinsmobility co2emission ETV
301	510892 2398 63 15906 62 148 87 0.973 8.249732320188 261.04631626569 1194.4649052729
300	513290 2689 63 15906 62 148 87 -4.4851124798693 2.1573957950016 9.818514464754 195.00588976171
296	515979 2586 62 15906 61 148 88 3.5279046122427 13.887301213834 954.53561761253 11504.354143901
286	518565 1944 61 15906 60 148 89 423.4 626.6 47207.126594465 25825985.303005
285	520509 2478 61 15906 60 148 89 230.66631875834 618.665441082 37682.5416892 17046611.687397
vector 730 Sim2Scenario.node[146].veinsmobility posx ETV
vector 731 Sim2Scenario.node[146].veinsmobility posy ETV
413	523103 1864 8737 15907 84 149 66 0.973 8.3197853899401 203.51431259725 930.3690919158
412	524967 2093 8737 15907 84 149 66 -4.4534293249263 2.4266446637292 9.809498909096 142.11162202474
409	527060 2012 8577 15907 83 149 67 3.5582784241476 13.883366737266 761.1864128339 9350.9766842574
401	529072 1698 8576 15907 82 149 68 423.4 623.4 35679.918818629 19202699.247677
400	530770 1742 8576 15907 82 149 68 26.6 411.60456825144 12276.656598327 3189252.1222507
vector 732 Sim2Scenario.node[147].veinsmobility posx ETV
vector 733 Sim2Scenario.node[147].veinsmobility posy ETV
vector 734 Sim2Scenario.node[148].veinsmobility posx ETV
vector 735 Sim2Scenario.node[148].veinsmobility posy ETV
vector 736 Sim2Scenario.node[146].veinsmobility speed ETV
vector 737 Sim2Scenario.node[149].veinsmobility posx ETV
vector 738 Sim2Scenario.node[149].veinsmobility posy ETV
vector 739 Sim2Scenario.node[150].veinsmobility posx ETV
vector 740 Sim2Scenario.node[150].veinsmobility posy ETV
vector 741 Sim2Scenario.node[146].veinsmobility acceleration ETV
vector 742 Sim2Scenario.node[146].veinsmobility co2emission ETV
vector 743 Sim2Scenario.node[147].veinsmobility speed ETV
vector 744 Sim2Scenario.node[148].veinsmobility speed ETV
353	533284 2280 73 16037 72 151 80 0.973 8.7515876240899 232.52924838276 1028.2538934495
352	535564 2539 73 16037 72 151 80 -4.4690181442451 2.2982398118335 9.631880311638 148.80217038154
347	538103 2412 72 16037 71 151 81 4.1371704788945 13.888359806235 962.57525390364 12202.644177549
341	540515 1976 71 16037 70 151 82 26.6 226.6 8757.1818098138 1506270.0691932
340	542491 2110 71 16037 70 151 82 226.6 806.14436511686 38779.775824494 21303045.093687
vector 745 Sim2Scenario.node[151].veinsmobility posx ETV
vector 746 Sim2Scenario.node[151].veinsmobility posy ETV
vector 747 Sim2Scenario.node[147].veinsmobility acceleration ETV
vector 748 Sim2Scenario.node[147].veinsmobility co2emission ETV
vector 749 Sim2Scenario.node[148].veinsmobility acceleration ETV
vector 750 Sim2Scenario.node[148].veinsmobility co2emission ETV
vector 751 Sim2Scenario.node[149].veinsmobility speed ETV
vector 752 Sim2Scenario.node[150].veinsmobility speed ETV
266	545097 2746 56 16668 55 152 98 0.973 8.3629647430375 250.33075945487 932.17229833037
265	547843 3065 56 16668 55 152 98 -4.4333204121212 2.1741838204581 9.9686468499981 127.07460078345
262	550908 2894 55 16668 54 152 99 7.5887866031219e-013 13.88906084582 1163.4787259033 15164.745650016
255	553802 2395 54 16668 53 152 100 23.4 609.30807805513 15185.315096139 5678972.1750854
254	556197 2491 54 16668 53 152 100 430.61027117703 823.4 68406.293829117 49135386.269343
vector 753 Sim2Scenario.node[152].veinsmobility posx ETV
vector 754 Sim2Scenario.node[152].veinsmobility posy ETV
vector 755 Sim2Scenario.node[149].veinsmobility acceleration ETV
vector 756 Sim2Scenario.node[149].veinsmobility co2emission ETV
vector 757 Sim2Scenario.node[150].veinsmobility acceleration ETV
vector 758 Sim2Scenario.node[150].veinsmobility co2emission ETV
vector 759 Sim2Scenario.node[151].veinsmobility speed ETV
vector 760 Sim2Scenario.node[153].veinsmobility posx ETV
vector 761 Sim2Scenario.node[153].veinsmobility posy ETV
vector 762 Sim2Scenario.node[151].veinsmobility acceleration ETV
vector 763 Sim2Scenario.node[151].veinsmobility co2emission ETV
vector 764 Sim2Scenario.node[152].veinsmobility speed ETV
343	559431 2378 71 17497 70 154 85 0.973 8.5200521614827 247.10677200832 1081.2062270777
342	561809 2661 71 17497 70 154 85 -3.3156962022566 2.2257198247744 9.6223876437899 158.63347562556
339	564470 2562 70 17497 69 154 86 3.5035067396505 13.882100400892 949.70762691757 11621.133926047
331	567032 2221 69 17497 68 154 87 423.4 818.44312646033 48765.724309663 29272729.96982
330	569253 2130 69 17497 68 154 87 231.05297113285 426.6 33134.064673017 12986715.159113
vector 765 Sim2Scenario.node[154].veinsmobility posx ETV
vector 766 Sim2Scenario.node[154].veinsmobility posy ETV
vector 767 Sim2Scenario.node[152].veinsmobility acceleration ETV
vector 768 Sim2Scenario.node[152].veinsmobility co2emission ETV
vector 769 Sim2Scenario.node[153].veinsmobility speed ETV
vector 770 Sim2Scenario.node[153].veinsmobility acceleration ETV
vector 771 Sim2Scenario.node[153].veinsmobility co2emission ETV
vector 772 Sim2Scenario.node[154].veinsmobility speed ETV
328	571879 2357 68 18681 67 156 90 0.973 8.5977309010216 173.70897413033 467.20556396486
327	574236 2928 68 18681 67 156 90 -2.8163295355063 2.0138367303484 1.1188253912897 54.635902276507
322	577164 2815 67 18681 66 156 91 4.5420342724483e-014 13.88821291568 778.08164243457 10117.259326727
315	579979 2543 66 18681 65 156 92 34.513204166972 811.63797165498 28007.932283632 14960020.837835
314	582522 1820 66 18681 65 156 92 626.6 626.6 57647.2 36121735.52
441	584342 1921 9001 18681 90 156 67 0.973 8.5727815983858 206.48320894071 975.98577076761
440	586263 2134 9001 18681 90 156 67 -3.9463805073346 2.3725386688928 9.6528373693292 152.62258204107
439	588397 2056 9000 18681 89 156 68 3.5532711501932 13.88099892339 763.99767364921 9398.5680647722
430	590453 1770 8999 18681 88 156 69 31.30386707374 223.4 11698.237428097 2308208.0339696
429	592223 1761 8999 18681 88 156 69 37.583522787835 426.6 23053.690909244 8731914.7640354
103	593984 3827 23 18681 22 156 135 0.973 8.7095743379261 325.68712931909 1064.44739893
102	597811 4192 23 18681 22 156 135 -4.5 2.1165438558301 9.6367962564372 101.20021609752
99	602003 3773 22 18681 21 156 136 4.1836085551388 13.887874211404 1785.3091286099 23969.179495066
91	605776 2993 21 18681 20 156 137 23.4 826.6 41650.601197898 26486734.133142
90	608769 3215 21 18681 20 156 137 33.796228008677 826.6 88269.792538976 64908785.041706
436	611984 1941 9000 18681 89 156 68 0.973 8.0702252033263 207.81975756037 945.74906129034
435	613925 2153 9000 18681 89 156 68 -4.4577862346235 2.2379811520618 10.899190550337 153.0394360099
431	616078 2086 8999 18681 88 156 69 2.8626567228066 13.888977255456 760.65326537681 9264.5159408891
424	618164 1606 8998 18681 87 156 70 223.4 423.4 20350.399559282 6428164.7390293
423	619770 1967 8998 18681 87 156 70 30.717301161243 223.4 10530.644391125 1908611.0846734
vector 773 Sim2Scenario.node[155].veinsmobility posx ETV
vector 774 Sim2Scenario.node[155].veinsmobility posy ETV
vector 775 Sim2Scenario.node[154].veinsmobility acceleration ETV
vector 776 Sim2Scenario.node[154].veinsmobility co2emission ETV
vector 777 Sim2Scenario.node[156].veinsmobility posx ETV
vector 778 Sim2Scenario.node[156].veinsmobility posy ETV
vector 779 Sim2Scenario.node[157].veinsmobility posx ETV
vector 780 Sim2Scenario.node[157].veinsmobility posy ETV
vector 781 Sim2Scenario.node[155].veinsmobility speed ETV
vector 782 Sim2Scenario.node[155].veinsmobility acceleration ETV
vector 783 Sim2Scenario.node[155].veinsmobility co2emission ETV
vector 784 Sim2Scenario.node[156].veinsmobility speed ETV
vector 785 Sim2Scenario.node[157].veinsmobility speed ETV
444	622524 1953 9002 19794 91 159 69 0.973 8.5460980349306 211.8705657116 986.65160438176
443	624477 2190 9002 19794 91 159 69 -3.422092048518 2.2472780957911 9.8020228307883 161.35253424588
442	626667 2118 9001 19794 90 159 70 3.5091430947192 13.885375082362 773.31101767182 9438.3391972354
434	628785 1652 9000 19794 89 159 71 423.4 611.65732946513 31953.204117509 14587226.605572
433	630437 1983 9000 19794 89 159 71 30.712785419958 426.6 17721.33126568 5911653.7863768
vector 786 Sim2Scenario.node[158].veinsmobility posx ETV
vector 787 Sim2Scenario.node[158].veinsmobility posy ETV
vector 788 Sim2Scenario.node[156].veinsmobility acceleration ETV
vector 789 Sim2Scenario.node[156].veinsmobility co2emission ETV
vector 790 Sim2Scenario.node[157].veinsmobility acceleration ETV
vector 791 Sim2Scenario.node[157].veinsmobility co2emission ETV
543	632798 1472 9023 20392 110 160 51 0.973 8.819842920466 158.70857239864 739.10516374469
542	634270 1637 9023 20392 110 160 51 -3.1351001556171 2.2915144480742 9.9979188456975 112.6891035586
537	635907 1589 9022 20392 109 160 52 3.629911981714 13.884144622206 565.37238731495 6862.3014346014
529	637496 1277 9021 20392 108 160 53 241.5469983925 426.6 21204.390440842 8617006.8081005
528	638773 1489 9021 20392 108 160 53 631.60631339471 826.6 39937.770962626 30362709.266789
vector 792 Sim2Scenario.node[159].veinsmobility posx ETV
vector 793 Sim2Scenario.node[159].veinsmobility posy ETV
vector 794 Sim2Scenario.node[158].veinsmobility speed ETV
378	640437 2282 3692 20393 77 161 85 0.973 8.8321014055174 208.60430418737 835.7152941439
377	642719 2465 3692 20393 77 161 85 -3.2626410568585 2.1289450752479 9.6723535666695 125.14977213155
374	645184 2358 3691 20393 76 161 86 0 13.888523997939 761.91974779002 9540.2682403392
366	647542 2250 216 20393 75 161 87 223.4 619.32664876575 31007.250157351 12996599.231649
365	649792 2032 216 20393 75 161 87 623.4 811.60121273751 56321.181383571 36670449.77535
vector 795 Sim2Scenario.node[160].veinsmobility posx ETV
vector 796 Sim2Scenario.node[160].veinsmobility posy ETV
vector 797 Sim2Scenario.node[161].veinsmobility posx ETV
vector 798 Sim2Scenario.node[161].veinsmobility posy ETV
vector 799 Sim2Scenario.node[158].veinsmobility acceleration ETV
[...]
11771	38403095 1345 424678 436365 2357 2400 44 310.89743182614 623.4 23721.361666942 13261815.530495
11770	38404440 1298 424678 436365 2357 2400 44 626.6 812.6253677404 29497.628492003 19961639.14685
11788	38405738 1321 424681 436365 2360 2400 41 0.973 8.3381412283667 122.66001171711 572.02232174345
11787	38407059 1481 424681 436365 2360 2400 41 -3.1813978780584 2.3758940121182 4.2843572523726 109.38825216484
11784	38408540 1465 424680 436365 2359 2400 42 1.9978437961709 13.872262765248 402.97966108477 4592.9856749705
11776	38410005 1115 424679 436365 2358 2400 43 223.4 237.50769455812 9629.1926143613 2156545.5079135
11775	38411120 1491 424679 436365 2358 2400 43 423.4 811.64846693954 25629.928632199 15993516.938235
11793	38412611 1171 424960 436365 2361 2400 40 0.973 8.6457772404816 96.205171475781 405.64953806479
11792	38413782 1479 424960 436365 2361 2400 40 -3.1689549655824 2.0582038998883 -4.1450921329431 89.828346259133
11789	38415261 1480 424681 436365 2360 2400 41 4.541805945739e-014 13.864714094838 255.61482880574 2718.5239370389
11781	38416741 1069 424680 436365 2359 2400 42 823.4 826.6 34644.646221846 28577520.903624
11780	38417810 1468 424680 436365 2359 2400 42 438.34761537373 619.20189684926 22986.873023097 12685887.244345
11798	38419278 1281 424961 436365 2362 2400 39 0.973 8.370770435196 128.2459247306 626.02852640436
11797	38420559 1415 424961 436365 2362 2400 39 -4.468191949184 2.1373956018733 7.6173227439853 116.75126669194
11794	38421974 1380 424960 436365 2361 2400 40 3.6492089433107 13.889799415192 415.69208793609 4883.3957109442
11786	38423354 1389 424681 436365 2360 2400 41 26.6 218.71769164122 4723.1816155997 733687.16388009
11785	38424743 1049 424681 436365 2360 2400 41 23.4 59.134589718645 1105.2565331231 31723.047903599
11821	38425792 1140 432606 436365 2366 2400 35 0.973 8.7213658299956 104.2731206019 487.23101569649
11820	38426932 1268 432606 436365 2366 2400 35 -3.1551292998485 2.0668991884426 -0.061664176682321 92.05366687393
11816	38428200 1254 432604 436365 2365 2400 36 3.5703369465509 13.87036678883 366.03246122247 4283.5786141998
11806	38429454 945 429627 436365 2364 2400 37 223.4 226.6 8323.1192717461 1872371.6833349
11805	38430399 1289 429627 436365 2364 2400 37 31.537042210289 213.92799704356 4509.7932707366 696817.60119728
11810	38431688 1202 429627 436365 2364 2400 37 0.973 8.3816368866078 112.23182066141 526.95704930147
11809	38432890 1330 429627 436365 2364 2400 37 -3.2380587190161 2.5798174635787 3.1151561549641 103.43553829441
11804	38434220 1322 429625 436365 2363 2400 38 3.2447364864749 13.87808576202 377.97931062511 4366.4084188874
11796	38435542 1005 424961 436365 2362 2400 39 620.02145497728 626.6 24370.576514891 15228966.314417
11795	38436547 1361 424961 436365 2362 2400 39 626.91735071104 818.72168451268 28201.830785557 20559425.28576
11823	38437908 1210 432606 436365 2366 2400 35 0.973 8.0032042385479 98.021589291732 369.68404846964
11822	38439118 1297 432606 436365 2366 2400 35 -1.8091425936896 2.1014906015689 10.923583421177 25.324863445435
11817	38440415 1258 432604 436365 2365 2400 36 2.9660349792747 13.889618400452 458.71334706185 6092.6445984092
11808	38441673 1292 429627 436365 2364 2400 37 360.17415053235 812.55144011874 22371.268921019 14268609.982102
11807	38442965 925 429627 436365 2364 2400 37 226.6 226.6 8384.2 1899859.72
11828	38443890 1155 434476 436365 2367 2400 34 0.973 8.4305357499709 108.48482560455 493.50902875467
11827	38445045 1242 434476 436365 2367 2400 34 -4.4446157914502 2.0562430188037 9.6926113847281 70.399869150308
11824	38446287 1223 432606 436365 2366 2400 35 3.893444878757 13.877645334254 410.83817173212 5185.2842317917
11813	38447510 1070 432604 436365 2365 2400 36 26.6 247.77564084023 2860.9497394087 412906.00809714
11812	38448580 1078 432604 436365 2365 2400 36 638.39665508158 823.4 27861.781392422 21722934.15443
11833	38449658 1072 434477 436365 2368 2400 33 0.973 8.9290651379035 102.43347335047 498.06382133486
11832	38450730 1195 434477 436365 2368 2400 33 -3.2808028629698 2.5132536433521 -0.10138862021037 94.314813003401
11829	38451925 1187 434476 436365 2367 2400 34 3.5079797498917 13.881741064596 373.89266926036 4525.9555233704
11819	38453112 1071 432606 436365 2366 2400 35 423.4 611.5957002717 16653.992822598 8084678.9924439
11818	38454183 1055 432606 436365 2366 2400 35 437.77849340603 626.6 20301.887765925 11922778.987512
11841	38455238 1032 435109 436365 2370 2400 31 0.973 8.616345433796 100.04855375247 480.59166004369
11840	38456270 1134 435109 436365 2370 2400 31 -3.1008453149968 2.0632200921141 9.8105269508499 64.618200287683
11839	38457404 1119 435108 436365 2369 2400 32 3.6440554378345 13.877427278736 340.55924218459 4091.6562117698
11831	38458523 1151 434477 436365 2368 2400 33 31.318769339245 211.65432363485 3686.9340130411 526869.58372329
11830	38459674 845 434477 436365 2368 2400 33 423.4 426.6 14032.418052138 5967013.2718045
11848	38460519 1009 435440 436365 2371 2400 30 0.973 7.9617837483667 98.69269043718 478.19671290524
11847	38461528 1091 435440 436365 2371 2400 30 -3.3941297338203 2.1727290732716 9.7590779828596 65.250625754691
11842	38462619 1084 435109 436365 2370 2400 31 4.0223731369699 13.860008356539 347.06026666665 4247.5253956315
11836	38463703 939 435108 436365 2369 2400 32 264.74998402104 423.4 12539.806628811 4991754.5680346
11835	38464642 989 435108 436365 2369 2400 32 226.6 411.60696057536 9034.2176977176 2695425.7116498
11856	38465631 849 435733 436365 2373 2400 28 0.973 8.4664338076612 67.688300608043 281.57429134558
11855	38466480 966 435733 436365 2373 2400 28 -3.3649971223662 2.1505117162876 -2.299496281707 64.842325937406
11851	38467446 958 435441 436365 2372 2400 29 0 13.878130327056 202.30604146791 2220.9134309244
11844	38468404 859 435440 436365 2371 2400 30 426.6 445.36334656139 12965.075781894 5605058.1130164
11843	38469263 939 435440 436365 2371 2400 30 237.3 423.4 10756.724653181 4005423.3490964
11858	38470202 917 435733 436365 2373 2400 28 0.973 8.3960524077904 93.720264925949 463.7422031712
11857	38471119 1005 435733 436365 2373 2400 28 -3.1875898881568 2.1513434481002 9.7931511647229 76.268200568635
11852	38472124 1013 435441 436365 2372 2400 29 0.55285072094911 13.886789213335 259.49132428418 2954.8840609297
11846	38473137 759 435440 436365 2371 2400 30 623.4 626.6 18771.291356421 11745438.676957
11845	38473896 1046 435440 436365 2371 2400 30 438.33783596145 619.1543217897 16596.772450871 9296017.4927015
11861	38474942 891 435735 436365 2374 2400 27 0.973 8.4137501432963 92.496976587829 472.64430452424
11860	38475833 978 435735 436365 2374 2400 27 -3.1095263286708 2.0721159980143 9.6705305823552 64.136277470521
11859	38476811 977 435733 436365 2373 2400 28 3.5830289538973 13.885883836227 293.44879670656 3470.2608842925
11850	38477788 1015 435441 436365 2372 2400 29 430.81374672862 611.59205477344 14668.858279333 7519952.7784578
11849	38478803 735 435441 436365 2372 2400 29 823.4 826.6 23937.372506543 19758611.498546
11866	38479538 907 436337 436365 2375 2400 26 1.6166924849638 8.0539825438239 74.43914166751 300.74857050293
11865	38480445 953 436337 436365 2375 2400 26 -0.12004991471069 2.11456696162 9.8386856522429 19.286955648439
11862	38481398 943 435735 436365 2374 2400 27 4.006319421174 13.886520592305 343.97441339534 4563.7734110896
11854	38482341 700 435733 436365 2373 2400 28 826.6 826.6 23144.8 19131491.68
11853	38483041 978 435733 436365 2373 2400 28 34.337920713252 373.00485538487 5302.8532387073 1325873.36975
11881	38484019 713 436340 436365 2378 2400 23 0.973 8.3942301387747 61.119874961327 261.93446789102
11880	38484732 826 436340 436365 2378 2400 23 -2.8764740646889 2.0992056085542 1.8822473526796 56.68219199961
11876	38485558 844 436339 436365 2377 2400 24 0.0022238200808055 13.878035124138 188.55951435885 2070.5866944585
11868	38486402 655 436338 436365 2376 2400 25 223.4 225.69120891237 5587.7617512169 1248928.3720326
11867	38487057 871 436338 436365 2376 2400 25 25.54527465258 212.1846267841 2569.8750366545 379318.83997194
11875	38487928 789 436339 436365 2377 2400 24 0.973 8.5978634290806 86.146357211292 454.94714296891
11874	38488717 864 436339 436365 2377 2400 24 -3.1368153332055 2.0534890665743 9.940752307607 64.89418924178
11871	38489581 870 436338 436365 2376 2400 25 3.5691409956384 13.880756112747 243.70380005912 2758.8774427403
11864	38490451 908 436337 436365 2375 2400 26 31.61012724351 211.62265699282 2702.3843567135 382814.43163151
11863	38491359 670 436337 436365 2375 2400 26 223.4 226.6 5869.0106463335 1324869.6362089
11883	38492029 804 436340 436365 2378 2400 23 1.7263921235685 7.5115768895962 69.040200761342 279.86339563843
11882	38492833 848 436340 436365 2378 2400 23 -0.08710530421231 2.1367581464839 11.04192144224 20.739608645292
11877	38493681 834 436339 436365 2377 2400 24 2.797902582108 13.877136722619 295.05203602748 3858.5212846677
11870	38494515 875 436338 436365 2376 2400 25 37.452540411305 326.98067789669 4142.5771551834 903577.17389764
11869	38495390 625 436338 436365 2376 2400 25 423.4 423.4 10585 4481689
11888	38496015 728 436341 436365 2379 2400 22 0.973 9.2133638296311 62.032578996344 275.35518592298
11887	38496743 804 436341 436365 2379 2400 22 -3.1275819056475 2.1635485568723 -1.0290561203905 49.573456005881
11884	38497547 803 436340 436365 2378 2400 23 2.910569835957 13.870340422934 259.34827034383 3229.8342524645
11873	38498350 600 436339 436365 2377 2400 24 823.4 823.4 19761.6 16271701.44
11872	38498950 836 436339 436365 2377 2400 24 556.22097326193 815.61984456341 16560.073983635 11610358.958072
11893	38499786 692 436342 436365 2380 2400 21 0.973 8.4207112603906 74.906358293567 389.92489379404
11892	38500478 756 436342 436365 2380 2400 21 -3.0924291436232 2.2571779466974 7.9019186420019 60.191549527615
11889	38501234 769 436341 436365 2379 2400 22 4.1626990839355 13.889691394418 221.42546495471 2498.5885878096
11879	38502003 773 436340 436365 2378 2400 23 638.3671131785 823.4 17134.462764267 12870974.779356
11878	38502776 625 436340 436365 2378 2400 23 590.00039040126 623.4 14264.305658109 8848095.4932687
11898	38503401 678 436343 436365 2381 2400 20 0.973 7.7743420503258 71.508776173158 359.35498878116
11897	38504079 718 436343 436365 2381 2400 20 -4.197489044076 2.1249807901331 8.6298800838962 57.53504414601
11894	38504797 734 436342 436365 2380 2400 21 3.0035245437953 13.881377520808 222.30823798313 2605.7047633449
11886	38505531 599 436341 436365 2379 2400 22 793.5014430517 823.4 18051.424985447 14812746.94287
11885	38506130 738 436341 436365 2379 2400 22 626.6 816.54951140941 15753.598306596 11389624.094812
11903	38506868 632 436344 436365 2382 2400 19 0.973 8.447954665856 68.351687403343 350.35527641813
11902	38507500 684 436344 436365 2382 2400 19 -4.4982545449026 2.1947245539492 7.7251168654112 54.515149977228
11899	38508184 699 436343 436365 2381 2400 20 3.8439728955554 13.886224071216 215.95326867091 2544.307443645
11891	38508883 547 436342 436365 2380 2400 21 26.6 55.53369740629 618.23412570143 19300.607227415
11890	38509430 705 436342 436365 2380 2400 21 438.37243655228 623.4 11295.570569417 6172522.8609331
11908	38510135 629 436345 436365 2383 2400 18 1.7594934342389 8.4935823719063 58.253724663491 269.11849401683
11907	38510764 660 436345 436365 2383 2400 18 -0.077362197721376 2.1079617901472 9.908696826326 19.472796940411
11904	38511424 664 436344 436365 2382 2400 19 3.9174961662132 13.867072503634 232.54884898489 3017.7842138323
11896	38512088 696 436343 436365 2381 2400 20 34.357790187705 261.8183028899 2698.5084983679 472456.13032015
11895	38512784 480 436343 436365 2381 2400 20 23.4 23.4 468 10951.2
11913	38513264 553 436346 436365 2384 2400 17 0.973 7.428754231103 54.596669420529 255.18147263679
11912	38513817 613 436346 436365 2384 2400 17 -3.1311505801291 2.3680132919084 2.1804865207815 50.575969481345
11909	38514430 628 436345 436365 2383 2400 18 3.8136058931973 13.886197524287 182.85064446672 2114.2377995512
11901	38515058 485 436344 436365 2382 2400 19 223.4 223.64416354701 4244.844163547 948352.79188864
11900	38515543 665 436344 436365 2382 2400 19 630.49085517094 811.61167163804 13718.649072762 9981519.9893223
11918	38516208 518 436349 436365 2385 2400 16 0.973 7.4415039187043 49.970690617822 240.19062188307
11917	38516726 585 436349 436365 2385 2400 16 -3.1685042895871 2.1953513618186 -0.87614311098707 47.327239595805
11914	38517311 591 436346 436365 2384 2400 17 3.3077534317774 13.849394347901 181.64805257684 2173.8239671196
11906	38517902 450 436345 436365 2383 2400 18 826.6 826.6 14878.8 12298816.08
11905	38518352 623 436345 436365 2383 2400 18 34.3970489761 215.8850725158 2191.9404438241 337486.88326788
11921	38518975 493 436350 436365 2386 2400 15 0.973 8.3168629995321 48.913573106431 244.61099241655
11920	38519468 544 436350 436365 2386 2400 15 -3.1164175778284 2.062122870048 0.91952784743119 45.659971012478
11919	38520012 560 436349 436365 2385 2400 16 3.9918591684409 13.885079680039 173.23061217066 2073.6271070353
11911	38520572 425 436346 436365 2384 2400 17 426.6 426.6 7252.2 3093788.52
11910	38520997 593 436346 436365 2384 2400 17 438.38824524646 610.69693148239 8808.0829490866 4622522.9218849
11926	38521590 486 436351 436365 2387 2400 14 1.795653789989 7.657078958971 49.795336496139 246.97425771013
11925	38522076 511 436351 436365 2387 2400 14 -0.066409573582932 2.0981288035749 9.5845446811419 18.850948024252
11922	38522587 525 436350 436365 2386 2400 15 4.1950237859028 13.880348125086 179.26693089556 2287.4848579338
11916	38523112 559 436349 436365 2385 2400 16 437.50306001855 611.60034979241 8577.461194643 4650379.1849755
11915	38523671 384 436349 436365 2385 2400 16 26.6 26.6 425.6 11320.96
11946	38524055 349 436355 436365 2391 2400 10 1.7609229974082 7.6531062555477 42.331704852543 219.24997438096
11945	38524404 359 436355 436365 2391 2400 10 -0.077512392904609 1.9395722691598 10.555902180742 18.849134348901
11939	38524763 384 436354 436365 2390 2400 11 3.3005649737729 13.880224861719 117.25810732593 1403.1968188162
11931	38525147 420 436353 436365 2389 2400 12 237.81649241324 349.75162756343 3393.3950740513 976274.57593444
11930	38525567 300 436353 436365 2389 2400 12 623.4 623.4 7480.8 4663530.72
11935	38525867 420 436353 436365 2389 2400 12 1.8485582885399 8.4260620201512 45.975117730915 232.57794779854
11934	38526287 435 436353 436365 2389 2400 12 -0.051097147834954 1.9864531501289 9.8954924587092 18.188252375991
11929	38526722 454 436352 436365 2388 2400 13 3.9657626611691 13.861255119878 148.88308687984 1852.6708183931
11924	38527176 350 436351 436365 2387 2400 14 826.6 826.6 11572.4 9565745.84
11923	38527526 487 436351 436365 2387 2400 14 438.36725119219 582.11850391581 6984.7850754704 3516340.271419
11938	38528013 384 436354 436365 2390 2400 11 1.7740748875664 8.501262746782 44.191403038814 241.25321912726
11937	38528397 399 436354 436365 2390 2400 11 -0.07310511986725 2.0024239664501 9.7966231147986 19.240526168346
11936	38528796 419 436353 436365 2389 2400 12 4.0853791824734 13.888608144145 137.09487503712 1703.595617105
11928	38529215 454 436352 436365 2388 2400 13 479.82513099556 611.59338412878 7230.8617013337 4046728.0116716
11927	38529669 325 436352 436365 2388 2400 13 826.6 826.6 10745.8 8882478.28
11948	38529994 349 436355 436365 2391 2400 10 1.9928706371183 7.8268837479784 43.039740578636 233.24168068215
11947	38530343 360 436355 436365 2391 2400 10 -0.009807621759828 2.0256480451068 11.364453503139 21.450577161119
11940	38530703 382 436354 436365 2390 2400 11 2.5062915772513 13.88055270215 113.36565571401 1349.0345482602
11933	38531085 300 436353 436365 2389 2400 12 426.6 426.6 5119.2 2183850.72
11932	38531385 418 436353 436365 2389 2400 12 237.32476715991 344.63614196786 3348.1035785248 949679.41144905
11954	38531803 280 436357 436365 2393 2400 8 1.7580320739085 8.6307852734882 37.972045738823 228.3328155651
11953	38532083 289 436357 436365 2393 2400 8 -0.077856928277761 2.0889725931059 9.8564793329956 19.690995044897
11949	38532372 315 436356 436365 2392 2400 9 3.9250047837184 13.862384448133 95.093331174541 1120.9697320912
11942	38532687 349 436355 436365 2391 2400 10 121.89674923713 211.65968671852 1754.3140417603 316801.50959355
11941	38533036 250 436355 436365 2391 2400 10 826.6 826.6 8266 6832675.6
11956	38533286 280 436357 436365 2393 2400 8 1.9739058316009 8.4042968245922 37.905701704563 224.89230489117
11955	38533566 288 436357 436365 2393 2400 8 -0.012591658639721 2.0826790255913 9.8201394322042 19.273359692344
11950	38533854 313 436356 436365 2392 2400 9 3.977187016933 13.797326449137 94.961018025038 1116.1380541291
11944	38534167 349 436355 436365 2391 2400 10 721.68640740511 811.64018434985 7752.9664813646 6019924.8032583
11943	38534516 250 436355 436365 2391 2400 10 426.6 426.6 4266 1819875.6
11974	38534766 140 436362 436365 2397 2400 4 4.3781266098811 7.3910045281831 23.54660589446 143.44759956919
11973	38534906 140 436362 436365 2397 2400 4 1.9052973098308 2.0272710582195 7.8848544155271 15.554452994408
11971	38535046 175 436361 436365 2396 2400 5 4.0424232047735 11.927277620301 40.122465763203 360.7881814343
11961	38535221 206 436360 436365 2395 2400 6 238.34018957168 273.92412806 1516.7841098289 384365.32696183
11960	38535427 150 436360 436365 2395 2400 6 423.4 423.4 2540.4 1075605.36
11965	38535577 210 436360 436365 2395 2400 6 3.8710151800185 7.8807925065801 33.602343888005 200.28477465181
11964	38535787 209 436360 436365 2395 2400 6 0.67129541698856 1.91206925862 9.8453527286068 17.295343960375
11959	38535996 245 436359 436365 2394 2400 7 4.0034201358653 13.848772864472 65.188106517151 690.32274071103
11952	38536241 277 436357 436365 2393 2400 8 34.394068648851 94.485551420873 465.44028973997 30322.657143052
11951	38536518 200 436357 436365 2393 2400 8 823.4 823.4 6587.2 5423900.48
11970	38536718 174 436361 436365 2396 2400 5 4.7267928494367 7.4587449221264 31.635524955818 206.75868080691
11969	38536892 173 436361 436365 2396 2400 5 1.6244681103161 2.151973217139 9.6056186825951 18.626155032585
11966	38537065 210 436360 436365 2395 2400 6 4.1868562852073 13.792474967802 54.92721038304 568.20017211825
11958	38537275 175 436359 436365 2394 2400 7 626.6 626.6 4386.2 2748392.92
11957	38537450 243 436359 436365 2394 2400 7 38.35882696497 88.247308432796 408.1268053965 25822.795879397
11976	38537693 139 436362 436365 2397 2400 4 3.3005672572767 6.3705502143447 20.483622466221 110.90192560884
11975	38537832 139 436362 436365 2397 2400 4 1.8388025441021 2.166058626622 7.9527257259912 15.891719985441
11972	38537971 175 436361 436365 2396 2400 5 2.5357786173625 10.488504343354 32.553545282271 252.61795590795
11963	38538146 150 436360 436365 2395 2400 6 426.6 426.6 2559.6 1091925.36
11962	38538296 210 436360 436365 2395 2400 6 237.37412180027 265.55504104701 1488.7076406142 369966.70582502
11979	38538506 105 436363 436365 2398 2400 3 4.1033860584473 6.6983425603307 16.080577380619 89.571814450584
11978	38538611 105 436363 436365 2398 2400 3 1.8942302376335 2.0903927158681 5.9593514874857 11.85740268265
11977	38538716 139 436362 436365 2397 2400 4 3.9987543995445 9.9581058870302 27.717558094915 211.78208808288
11968	38538855 125 436361 436365 2396 2400 5 823.4 823.4 4117 3389937.8
11967	38538980 175 436361 436365 2396 2400 5 387.42897699352 411.62092714913 2007.510531461 806398.70116806
11983	38539155 24 436365 436365 2400 2400 1 26.6 26.6 26.6 707.56
11982	38539179 35 436365 436365 2400 2400 1 238.37037038497 238.37037038497 238.37037038497 56820.433477469
11986	38539214 35 436365 436365 2400 2400 1 4.1108534224436 4.1108534224436 4.1108534224436 16.899115860816
11981	38539249 69 436364 436365 2399 2400 2 208.4018385803 211.62509146681 420.02693004711 88216.505661984
11980	38539318 50 436364 436365 2399 2400 2 826.6 826.6 1653.2 1366535.12
11985	38539368 25 436365 436365 2400 2400 1 626.6 626.6 626.6 392627.56
11984	38539393 35 436365 436365 2400 2400 1 38.382024228897 38.382024228897 38.382024228897 1473.1797839077

